/*---------------------------------------------------------------------------*\
| =========                 |                                                 |
| \\      /  F ield         | OpenFOAM: The Open Source CFD Toolbox           |
|  \\    /   O peration     | Version:  2412                                  |
|   \\  /    A nd           | Website:  www.openfoam.com                      |
|    \\/     M anipulation  |                                                 |
\*---------------------------------------------------------------------------*/
Build  : b7ce6bf69d-20250319 OPENFOAM=2412 version=v2412
Arch   : "LSB;label=32;scalar=64"
Exec   : overInterDyMFoam -parallel
Date   : Apr 15 2025
Time   : 13:31:57
Host   : DESKTOP-AGOA90S
PID    : 274840
I/O    : uncollated
Case   : /home/song/OpenFOAM/song-v2412/run/volcanicTsunamiGenerator2D/background
nProcs : 32
Hosts  :
(
    (DESKTOP-AGOA90S 32)
)
Pstream initialized with:
    floatTransfer      : false
    maxCommsSize       : 0
    nProcsSimpleSum    : 0
    nonBlockingExchange: 0 (tuning: 0)
    exchange algorithm : 0
    commsType          : nonBlocking
    polling iterations : 0
trapFpe: Floating point exception trapping enabled (FOAM_SIGFPE).
fileModificationChecking : Monitoring run-time modified files using timeStampMaster (fileModificationSkew 5, maxFileModificationPolls 20)
allowSystemOperations : Allowing user-supplied system call operations

// * * * * * * * * * * * * * * * * * * * * * * * * * * * * * * * * * * * * * //
Create time

Create mesh for time = 0

Selecting dynamicFvMesh dynamicOversetFvMesh
Selecting motion solver: multiSolidBodyMotionSolver
Applying motion to entire mesh
Selecting solid-body motion function tabulated6DoFMotion
Applying solid body motion tabulated6DoFMotion to 4988 points of cellZone movingZone

PIMPLE: no residual control data found. Calculations will employ 2 corrector loops

Reading field p_rgh

Reading field U

Reading/calculating face flux field phi

Creating cellMask field to block out hole cells

--> FOAM Warning : 
    From bool Foam::oversetPolyPatch::master() const
    in file oversetPolyPatch/oversetPolyPatch.C at line 145
    The master overset patch is not the first patch. Generally the first patch should be an overset patch to guarantee consistent operation.
Creating interpolatedCells field 

Reading transportProperties

Selecting incompressible transport model Newtonian
Selecting incompressible transport model Newtonian
Selecting turbulence model type RAS
Selecting RAS turbulence model kOmegaSST
Selecting patchDistMethod meshWave
RAS
{
    RASModel        kOmegaSST;
    turbulence      on;
    printCoeffs     on;
    alphaK1         0.85;
    alphaK2         1;
    alphaOmega1     0.5;
    alphaOmega2     0.856;
    gamma1          0.5555556;
    gamma2          0.44;
    beta1           0.075;
    beta2           0.0828;
    betaStar        0.09;
    a1              0.31;
    b1              1;
    c1              10;
    F3              false;
    decayControl    false;
    kInf            0;
    omegaInf        0;
}


Reading g

Reading hRef
Calculating field g.h

No MRF models present

No finite volume options present
Reading/calculating face velocity Uf

Courant Number mean: 0 max: 0

Starting time loop

Courant Number mean: 0 max: 0
Interface Courant Number mean: 0 max: 0
deltaT = 0.0005
Time = 0.0005

PIMPLE: iteration 1
inverseDistance : detected 2 mesh regions
    zone:0 nCells:351564  voxels:(1000 1000 1) bb:(-0.65 -1.6625 -0.1) (0.65 1.5 0.1)
    zone:1 nCells:1920  voxels:(1000 1000 1) bb:(-0.65 -1.6625 -0.1) (0.65 1.5 0.1)
Overset analysis : nCells : 353484
    calculated   : 334204
    interpolated : 1150 (from local:0  mixed local/remote:0  remote:1150)
    hole         : 18130

Execution time for mesh.update() = 1.82 s
Mesh Courant Number mean: 0.04801116 max: 25.08
smoothSolver:  Solving for alpha.water, Initial residual = 1.002591e-16, Final residual = 1.002591e-16, No Iterations 0
Phase-1 volume fraction = 0.1046374  Min(alpha.water) = 0  Max(alpha.water) = 1
MULES: Correcting alpha.water
MULES: Correcting alpha.water
MULES: Correcting alpha.water
Phase-1 volume fraction = 0.1046374  Min(alpha.water) = 0  Max(alpha.water) = 1
DILUPBiCGStab:  Solving for p_rgh, Initial residual = 1, Final residual = 0.0007588246, No Iterations 675
DILUPBiCGStab:  Solving for p_rgh, Initial residual = 4.875792e-06, Final residual = 4.288742e-09, No Iterations 628
DILUPBiCGStab:  Solving for p_rgh, Initial residual = 8.824154e-08, Final residual = 9.411685e-11, No Iterations 248
time step continuity errors : sum local = 6.463719e-09, global = -3.002e-09, cumulative = -3.002e-09
DILUPBiCGStab:  Solving for p_rgh, Initial residual = 9.234121e-05, Final residual = 5.595679e-08, No Iterations 658
DILUPBiCGStab:  Solving for p_rgh, Initial residual = 1.493352e-05, Final residual = 1.130881e-08, No Iterations 212
DILUPBiCGStab:  Solving for p_rgh, Initial residual = 2.27514e-07, Final residual = 2.187433e-10, No Iterations 464
time step continuity errors : sum local = 2.841603e-09, global = -1.125853e-09, cumulative = -4.127852e-09
DILUPBiCGStab:  Solving for p_rgh, Initial residual = 0.0001520203, Final residual = 1.145804e-07, No Iterations 553
DILUPBiCGStab:  Solving for p_rgh, Initial residual = 3.317574e-06, Final residual = 3.217747e-09, No Iterations 165
DILUPBiCGStab:  Solving for p_rgh, Initial residual = 6.137198e-08, Final residual = 5.030364e-11, No Iterations 368
time step continuity errors : sum local = 1.23935e-09, global = 5.643137e-10, cumulative = -3.563539e-09
smoothSolver:  Solving for omega, Initial residual = 0.02159116, Final residual = 6.253147e-09, No Iterations 16
smoothSolver:  Solving for k, Initial residual = 1, Final residual = 9.324318e-09, No Iterations 23
PIMPLE: iteration 2
inverseDistance : detected 2 mesh regions
    zone:0 nCells:351564  voxels:(1000 1000 1) bb:(-0.65 -1.6625 -0.1) (0.65 1.5 0.1)
    zone:1 nCells:1920  voxels:(1000 1000 1) bb:(-0.65 -1.6625 -0.1) (0.65 1.5 0.1)
Overset analysis : nCells : 353484
    calculated   : 334204
    interpolated : 1150 (from local:0  mixed local/remote:0  remote:1150)
    hole         : 18130

Execution time for mesh.update() = 0.7 s
Mesh Courant Number mean: 0.04801116 max: 25.08
smoothSolver:  Solving for alpha.water, Initial residual = 0.0007552991, Final residual = 4.210788e-11, No Iterations 11
Phase-1 volume fraction = 0.1046841  Min(alpha.water) = 0  Max(alpha.water) = 1
MULES: Correcting alpha.water
MULES: Correcting alpha.water
MULES: Correcting alpha.water
Phase-1 volume fraction = 0.1046834  Min(alpha.water) = -4.718665e-126  Max(alpha.water) = 1.000004
DILUPBiCGStab:  Solving for p_rgh, Initial residual = 0.0003102518, Final residual = 2.829275e-07, No Iterations 334
DILUPBiCGStab:  Solving for p_rgh, Initial residual = 1.116166e-06, Final residual = 2.264969e-10, No Iterations 634
DILUPBiCGStab:  Solving for p_rgh, Initial residual = 1.445345e-07, Final residual = 1.25237e-10, No Iterations 213
time step continuity errors : sum local = 2.199104e-09, global = -1.38674e-09, cumulative = -4.950279e-09
DILUPBiCGStab:  Solving for p_rgh, Initial residual = 4.045028e-05, Final residual = 3.800614e-08, No Iterations 495
DILUPBiCGStab:  Solving for p_rgh, Initial residual = 3.610872e-07, Final residual = 2.431177e-10, No Iterations 585
DILUPBiCGStab:  Solving for p_rgh, Initial residual = 3.612916e-08, Final residual = 9.124905e-11, No Iterations 145
time step continuity errors : sum local = 1.509128e-09, global = 4.683979e-10, cumulative = -4.481881e-09
DILUPBiCGStab:  Solving for p_rgh, Initial residual = 2.620034e-05, Final residual = 2.03798e-08, No Iterations 487
DILUPBiCGStab:  Solving for p_rgh, Initial residual = 2.246383e-07, Final residual = 1.457577e-10, No Iterations 575
DILUPBiCGStab:  Solving for p_rgh, Initial residual = 9.326369e-09, Final residual = 9.493376e-11, No Iterations 143
time step continuity errors : sum local = 2.20728e-09, global = 4.748301e-10, cumulative = -4.007051e-09
smoothSolver:  Solving for omega, Initial residual = 0.01503478, Final residual = 3.037904e-09, No Iterations 14
smoothSolver:  Solving for k, Initial residual = 0.1264639, Final residual = 7.359544e-09, No Iterations 15
ExecutionTime = 37.7 s  ClockTime = 38 s

Courant Number mean: 0.5333007 max: 531.6416
Interface Courant Number mean: 0.001904266 max: 25.59152
deltaT = 9.398496e-07
Time = 0.00050094

PIMPLE: iteration 1
inverseDistance : detected 2 mesh regions
    zone:0 nCells:351564  voxels:(1000 1000 1) bb:(-0.65 -1.6625 -0.1) (0.65 1.5 0.1)
    zone:1 nCells:1920  voxels:(1000 1000 1) bb:(-0.65 -1.6625 -0.1) (0.65 1.5 0.1)
Overset analysis : nCells : 353484
    calculated   : 334204
    interpolated : 1150 (from local:0  mixed local/remote:0  remote:1150)
    hole         : 18130

Execution time for mesh.update() = 0.72 s
Mesh Courant Number mean: 9.370663e-05 max: 0.04895034
smoothSolver:  Solving for alpha.water, Initial residual = 1.513972e-06, Final residual = 2.255542e-11, No Iterations 4
Phase-1 volume fraction = 0.1046835  Min(alpha.water) = -9.881313e-324  Max(alpha.water) = 1
MULES: Correcting alpha.water
MULES: Correcting alpha.water
MULES: Correcting alpha.water
Phase-1 volume fraction = 0.1046835  Min(alpha.water) = -9.881313e-324  Max(alpha.water) = 1
DILUPBiCGStab:  Solving for p_rgh, Initial residual = 0.03889275, Final residual = 2.037438e-05, No Iterations 686
DILUPBiCGStab:  Solving for p_rgh, Initial residual = 1.000916e-05, Final residual = 5.244936e-09, No Iterations 480
DILUPBiCGStab:  Solving for p_rgh, Initial residual = 1.617322e-07, Final residual = 1.45916e-10, No Iterations 550
time step continuity errors : sum local = 1.011586e-12, global = 3.077762e-13, cumulative = -4.006743e-09
DILUPBiCGStab:  Solving for p_rgh, Initial residual = 4.525249e-06, Final residual = 1.393619e-09, No Iterations 630
DILUPBiCGStab:  Solving for p_rgh, Initial residual = 1.361029e-07, Final residual = 1.211096e-10, No Iterations 378
DILUPBiCGStab:  Solving for p_rgh, Initial residual = 1.89638e-09, Final residual = 3.554558e-11, No Iterations 104
time step continuity errors : sum local = 1.921416e-13, global = -7.417431e-14, cumulative = -4.006817e-09
DILUPBiCGStab:  Solving for p_rgh, Initial residual = 6.160864e-08, Final residual = 5.392795e-11, No Iterations 522
DILUPBiCGStab:  Solving for p_rgh, Initial residual = 6.219525e-10, Final residual = 9.416019e-11, No Iterations 39
DILUPBiCGStab:  Solving for p_rgh, Initial residual = 1.030563e-10, Final residual = 9.86488e-11, No Iterations 1
time step continuity errors : sum local = 4.390963e-13, global = 2.856201e-13, cumulative = -4.006531e-09
smoothSolver:  Solving for omega, Initial residual = 0.0002471756, Final residual = 2.654638e-09, No Iterations 6
smoothSolver:  Solving for k, Initial residual = 0.0006226072, Final residual = 3.909334e-09, No Iterations 6
PIMPLE: iteration 2
inverseDistance : detected 2 mesh regions
    zone:0 nCells:351564  voxels:(1000 1000 1) bb:(-0.65 -1.6625 -0.1) (0.65 1.5 0.1)
    zone:1 nCells:1920  voxels:(1000 1000 1) bb:(-0.65 -1.6625 -0.1) (0.65 1.5 0.1)
Overset analysis : nCells : 353484
    calculated   : 334204
    interpolated : 1150 (from local:0  mixed local/remote:0  remote:1150)
    hole         : 18130

Execution time for mesh.update() = 0.74 s
Mesh Courant Number mean: 9.370663e-05 max: 0.04895034
smoothSolver:  Solving for alpha.water, Initial residual = 8.297807e-07, Final residual = 1.829808e-12, No Iterations 4
Phase-1 volume fraction = 0.1046834  Min(alpha.water) = -9.881313e-324  Max(alpha.water) = 1
MULES: Correcting alpha.water
MULES: Correcting alpha.water
MULES: Correcting alpha.water
Phase-1 volume fraction = 0.1046834  Min(alpha.water) = -9.881313e-324  Max(alpha.water) = 1
DILUPBiCGStab:  Solving for p_rgh, Initial residual = 2.618392e-06, Final residual = 2.059011e-09, No Iterations 486
DILUPBiCGStab:  Solving for p_rgh, Initial residual = 4.593904e-08, Final residual = 6.939522e-11, No Iterations 350
DILUPBiCGStab:  Solving for p_rgh, Initial residual = 1.400891e-09, Final residual = 8.771415e-11, No Iterations 94
time step continuity errors : sum local = 3.57775e-13, global = -5.788297e-14, cumulative = -4.006589e-09
DILUPBiCGStab:  Solving for p_rgh, Initial residual = 3.566782e-08, Final residual = 9.954869e-11, No Iterations 464
DILUPBiCGStab:  Solving for p_rgh, Initial residual = 5.067659e-10, Final residual = 5.244756e-11, No Iterations 206
DILUPBiCGStab:  Solving for p_rgh, Initial residual = 1.213551e-10, Final residual = 6.30782e-11, No Iterations 1
time step continuity errors : sum local = 3.753859e-13, global = -1.42455e-13, cumulative = -4.006732e-09
DILUPBiCGStab:  Solving for p_rgh, Initial residual = 7.182743e-10, Final residual = 9.891959e-11, No Iterations 106
DILUPBiCGStab:  Solving for p_rgh, Initial residual = 1.090246e-10, Final residual = 7.994585e-11, No Iterations 4
DILUPBiCGStab:  Solving for p_rgh, Initial residual = 8.035419e-11, Final residual = 8.035419e-11, No Iterations 0
time step continuity errors : sum local = 4.218612e-13, global = -1.551873e-14, cumulative = -4.006747e-09
smoothSolver:  Solving for omega, Initial residual = 1.019726e-06, Final residual = 6.811965e-09, No Iterations 3
smoothSolver:  Solving for k, Initial residual = 1.26745e-06, Final residual = 5.407855e-09, No Iterations 2
ExecutionTime = 44.41 s  ClockTime = 44 s

Courant Number mean: 0.001067101 max: 1.117989
Interface Courant Number mean: 3.711671e-06 max: 0.05190862
deltaT = 8.401686e-07
Time = 0.00050178

PIMPLE: iteration 1
inverseDistance : detected 2 mesh regions
    zone:0 nCells:351564  voxels:(1000 1000 1) bb:(-0.65 -1.6625 -0.1) (0.65 1.5 0.1)
    zone:1 nCells:1920  voxels:(1000 1000 1) bb:(-0.65 -1.6625 -0.1) (0.65 1.5 0.1)
Overset analysis : nCells : 353484
    calculated   : 334204
    interpolated : 1150 (from local:0  mixed local/remote:0  remote:1150)
    hole         : 18130

Execution time for mesh.update() = 0.67 s
Mesh Courant Number mean: 8.377766e-05 max: 0.04376365
smoothSolver:  Solving for alpha.water, Initial residual = 1.301224e-06, Final residual = 4.165387e-12, No Iterations 4
Phase-1 volume fraction = 0.1046835  Min(alpha.water) = -4.940656e-324  Max(alpha.water) = 1
MULES: Correcting alpha.water
MULES: Correcting alpha.water
MULES: Correcting alpha.water
Phase-1 volume fraction = 0.1046835  Min(alpha.water) = 0  Max(alpha.water) = 1
DILUPBiCGStab:  Solving for p_rgh, Initial residual = 0.0003218932, Final residual = 2.82556e-07, No Iterations 622
DILUPBiCGStab:  Solving for p_rgh, Initial residual = 5.693946e-06, Final residual = 3.925457e-09, No Iterations 344
DILUPBiCGStab:  Solving for p_rgh, Initial residual = 2.090796e-07, Final residual = 1.975307e-10, No Iterations 206
time step continuity errors : sum local = 6.945894e-13, global = -5.22302e-13, cumulative = -4.007269e-09
DILUPBiCGStab:  Solving for p_rgh, Initial residual = 3.665102e-06, Final residual = 1.764008e-09, No Iterations 733
DILUPBiCGStab:  Solving for p_rgh, Initial residual = 9.704254e-08, Final residual = 8.969168e-11, No Iterations 257
DILUPBiCGStab:  Solving for p_rgh, Initial residual = 1.222112e-09, Final residual = 9.479641e-11, No Iterations 97
time step continuity errors : sum local = 2.360601e-13, global = 1.660742e-13, cumulative = -4.007103e-09
DILUPBiCGStab:  Solving for p_rgh, Initial residual = 5.708879e-08, Final residual = 6.841271e-11, No Iterations 563
DILUPBiCGStab:  Solving for p_rgh, Initial residual = 8.728345e-10, Final residual = 9.980581e-11, No Iterations 34
DILUPBiCGStab:  Solving for p_rgh, Initial residual = 1.056776e-10, Final residual = 9.717991e-11, No Iterations 16
time step continuity errors : sum local = 2.56143e-13, global = -1.893394e-13, cumulative = -4.007293e-09
smoothSolver:  Solving for omega, Initial residual = 0.0002169051, Final residual = 2.380456e-09, No Iterations 6
smoothSolver:  Solving for k, Initial residual = 0.0005491993, Final residual = 3.514006e-09, No Iterations 6
PIMPLE: iteration 2
inverseDistance : detected 2 mesh regions
    zone:0 nCells:351564  voxels:(1000 1000 1) bb:(-0.65 -1.6625 -0.1) (0.65 1.5 0.1)
    zone:1 nCells:1920  voxels:(1000 1000 1) bb:(-0.65 -1.6625 -0.1) (0.65 1.5 0.1)
Overset analysis : nCells : 353484
    calculated   : 334204
    interpolated : 1150 (from local:0  mixed local/remote:0  remote:1150)
    hole         : 18130

Execution time for mesh.update() = 0.72 s
Mesh Courant Number mean: 8.377766e-05 max: 0.04376365
smoothSolver:  Solving for alpha.water, Initial residual = 7.803139e-07, Final residual = 1.575458e-12, No Iterations 4
Phase-1 volume fraction = 0.1046834  Min(alpha.water) = -4.940656e-324  Max(alpha.water) = 1
MULES: Correcting alpha.water
MULES: Correcting alpha.water
MULES: Correcting alpha.water
Phase-1 volume fraction = 0.1046834  Min(alpha.water) = 0  Max(alpha.water) = 1
DILUPBiCGStab:  Solving for p_rgh, Initial residual = 2.058633e-06, Final residual = 1.010779e-09, No Iterations 536
DILUPBiCGStab:  Solving for p_rgh, Initial residual = 4.85563e-08, Final residual = 6.842238e-11, No Iterations 397
DILUPBiCGStab:  Solving for p_rgh, Initial residual = 9.871388e-10, Final residual = 5.502186e-11, No Iterations 97
time step continuity errors : sum local = 8.766706e-14, global = 2.80765e-15, cumulative = -4.00729e-09
DILUPBiCGStab:  Solving for p_rgh, Initial residual = 3.910785e-08, Final residual = 3.378139e-11, No Iterations 561
DILUPBiCGStab:  Solving for p_rgh, Initial residual = 6.558809e-10, Final residual = 8.830645e-11, No Iterations 52
DILUPBiCGStab:  Solving for p_rgh, Initial residual = 9.553508e-11, Final residual = 9.553508e-11, No Iterations 0
time step continuity errors : sum local = 1.898399e-13, global = 2.750065e-14, cumulative = -4.007262e-09
DILUPBiCGStab:  Solving for p_rgh, Initial residual = 1.030895e-09, Final residual = 3.737125e-11, No Iterations 129
DILUPBiCGStab:  Solving for p_rgh, Initial residual = 5.023262e-11, Final residual = 5.023262e-11, No Iterations 0
DILUPBiCGStab:  Solving for p_rgh, Initial residual = 5.023262e-11, Final residual = 5.023262e-11, No Iterations 0
time step continuity errors : sum local = 1.163152e-13, global = -7.975453e-15, cumulative = -4.00727e-09
smoothSolver:  Solving for omega, Initial residual = 8.656372e-07, Final residual = 5.720734e-09, No Iterations 3
smoothSolver:  Solving for k, Initial residual = 2.417914e-06, Final residual = 6.106201e-10, No Iterations 3
ExecutionTime = 50.76 s  ClockTime = 51 s

Courant Number mean: 0.0009920028 max: 1.04829
Interface Courant Number mean: 3.309175e-06 max: 0.04800228
deltaT = 8.009968e-07
Time = 0.000502581

PIMPLE: iteration 1
inverseDistance : detected 2 mesh regions
    zone:0 nCells:351564  voxels:(1000 1000 1) bb:(-0.65 -1.6625 -0.1) (0.65 1.5 0.1)
    zone:1 nCells:1920  voxels:(1000 1000 1) bb:(-0.65 -1.6625 -0.1) (0.65 1.5 0.1)
Overset analysis : nCells : 353484
    calculated   : 334204
    interpolated : 1150 (from local:0  mixed local/remote:0  remote:1150)
    hole         : 18130

Execution time for mesh.update() = 0.67 s
Mesh Courant Number mean: 7.988007e-05 max: 0.04172764
smoothSolver:  Solving for alpha.water, Initial residual = 1.276226e-06, Final residual = 4.090989e-12, No Iterations 4
Phase-1 volume fraction = 0.1046834  Min(alpha.water) = 0  Max(alpha.water) = 1
MULES: Correcting alpha.water
MULES: Correcting alpha.water
MULES: Correcting alpha.water
Phase-1 volume fraction = 0.1046834  Min(alpha.water) = 0  Max(alpha.water) = 1
DILUPBiCGStab:  Solving for p_rgh, Initial residual = 0.0002940888, Final residual = 2.582556e-07, No Iterations 619
DILUPBiCGStab:  Solving for p_rgh, Initial residual = 8.418362e-06, Final residual = 6.708455e-09, No Iterations 482
DILUPBiCGStab:  Solving for p_rgh, Initial residual = 1.023334e-07, Final residual = 8.246071e-11, No Iterations 638
time step continuity errors : sum local = 1.673361e-13, global = -6.180281e-14, cumulative = -4.007332e-09
DILUPBiCGStab:  Solving for p_rgh, Initial residual = 3.301653e-06, Final residual = 2.398985e-09, No Iterations 652
DILUPBiCGStab:  Solving for p_rgh, Initial residual = 8.510548e-08, Final residual = 4.625694e-11, No Iterations 502
DILUPBiCGStab:  Solving for p_rgh, Initial residual = 1.383664e-09, Final residual = 9.831708e-11, No Iterations 22
time step continuity errors : sum local = 9.979342e-14, global = -1.700774e-14, cumulative = -4.007349e-09
DILUPBiCGStab:  Solving for p_rgh, Initial residual = 5.803779e-08, Final residual = 9.205177e-11, No Iterations 571
DILUPBiCGStab:  Solving for p_rgh, Initial residual = 1.119903e-09, Final residual = 8.750274e-11, No Iterations 83
DILUPBiCGStab:  Solving for p_rgh, Initial residual = 1.04667e-10, Final residual = 9.488985e-11, No Iterations 1
time step continuity errors : sum local = 1.169416e-13, global = -6.095826e-14, cumulative = -4.00741e-09
smoothSolver:  Solving for omega, Initial residual = 0.0002089068, Final residual = 2.312423e-09, No Iterations 6
smoothSolver:  Solving for k, Initial residual = 0.0005179553, Final residual = 3.359289e-09, No Iterations 6
PIMPLE: iteration 2
inverseDistance : detected 2 mesh regions
    zone:0 nCells:351564  voxels:(1000 1000 1) bb:(-0.65 -1.6625 -0.1) (0.65 1.5 0.1)
    zone:1 nCells:1920  voxels:(1000 1000 1) bb:(-0.65 -1.6625 -0.1) (0.65 1.5 0.1)
Overset analysis : nCells : 353484
    calculated   : 334204
    interpolated : 1150 (from local:0  mixed local/remote:0  remote:1150)
    hole         : 18130

Execution time for mesh.update() = 0.72 s
Mesh Courant Number mean: 7.988007e-05 max: 0.04172764
smoothSolver:  Solving for alpha.water, Initial residual = 7.583811e-07, Final residual = 1.34284e-12, No Iterations 4
Phase-1 volume fraction = 0.1046834  Min(alpha.water) = 0  Max(alpha.water) = 1
MULES: Correcting alpha.water
MULES: Correcting alpha.water
MULES: Correcting alpha.water
Phase-1 volume fraction = 0.1046834  Min(alpha.water) = 0  Max(alpha.water) = 1
DILUPBiCGStab:  Solving for p_rgh, Initial residual = 2.075292e-06, Final residual = 1.480533e-09, No Iterations 565
DILUPBiCGStab:  Solving for p_rgh, Initial residual = 4.732645e-08, Final residual = 9.430798e-11, No Iterations 283
DILUPBiCGStab:  Solving for p_rgh, Initial residual = 1.053377e-09, Final residual = 8.827927e-11, No Iterations 85
time step continuity errors : sum local = 1.37975e-13, global = -9.574634e-14, cumulative = -4.007506e-09
DILUPBiCGStab:  Solving for p_rgh, Initial residual = 3.288325e-08, Final residual = 8.042127e-11, No Iterations 534
DILUPBiCGStab:  Solving for p_rgh, Initial residual = 7.26878e-10, Final residual = 7.008916e-11, No Iterations 94
DILUPBiCGStab:  Solving for p_rgh, Initial residual = 9.010416e-11, Final residual = 9.010416e-11, No Iterations 0
time step continuity errors : sum local = 1.200961e-13, global = 5.736657e-15, cumulative = -4.0075e-09
DILUPBiCGStab:  Solving for p_rgh, Initial residual = 1.030474e-09, Final residual = 9.941467e-11, No Iterations 94
DILUPBiCGStab:  Solving for p_rgh, Initial residual = 1.05977e-10, Final residual = 8.465216e-11, No Iterations 54
DILUPBiCGStab:  Solving for p_rgh, Initial residual = 9.444194e-11, Final residual = 9.444194e-11, No Iterations 0
time step continuity errors : sum local = 1.236762e-13, global = -4.110911e-15, cumulative = -4.007504e-09
smoothSolver:  Solving for omega, Initial residual = 8.244907e-07, Final residual = 5.370748e-09, No Iterations 3
smoothSolver:  Solving for k, Initial residual = 1.580205e-06, Final residual = 1.730798e-10, No Iterations 3
ExecutionTime = 67.83 s  ClockTime = 68 s

Courant Number mean: 0.0009877762 max: 1.024936
Interface Courant Number mean: 3.146788e-06 max: 0.04671714
deltaT = 7.821053e-07
Time = 0.000503363

PIMPLE: iteration 1
inverseDistance : detected 2 mesh regions
    zone:0 nCells:351564  voxels:(1000 1000 1) bb:(-0.65 -1.6625 -0.1) (0.65 1.5 0.1)
    zone:1 nCells:1920  voxels:(1000 1000 1) bb:(-0.65 -1.6625 -0.1) (0.65 1.5 0.1)
Overset analysis : nCells : 353484
    calculated   : 334204
    interpolated : 1150 (from local:0  mixed local/remote:0  remote:1150)
    hole         : 18130

Execution time for mesh.update() = 0.68 s
Mesh Courant Number mean: 7.800406e-05 max: 0.04074765
smoothSolver:  Solving for alpha.water, Initial residual = 1.267797e-06, Final residual = 4.079065e-12, No Iterations 4
Phase-1 volume fraction = 0.1046834  Min(alpha.water) = 0  Max(alpha.water) = 1
MULES: Correcting alpha.water
MULES: Correcting alpha.water
MULES: Correcting alpha.water
Phase-1 volume fraction = 0.1046834  Min(alpha.water) = 0  Max(alpha.water) = 1
DILUPBiCGStab:  Solving for p_rgh, Initial residual = 0.0002734648, Final residual = 4.403734e-09, No Iterations 612
DILUPBiCGStab:  Solving for p_rgh, Initial residual = 1.522277e-05, Final residual = 1.475395e-08, No Iterations 146
DILUPBiCGStab:  Solving for p_rgh, Initial residual = 1.269745e-07, Final residual = 1.21135e-10, No Iterations 483
time step continuity errors : sum local = 1.167772e-13, global = -5.771577e-14, cumulative = -4.007562e-09
DILUPBiCGStab:  Solving for p_rgh, Initial residual = 3.847161e-06, Final residual = 3.32373e-09, No Iterations 632
DILUPBiCGStab:  Solving for p_rgh, Initial residual = 7.560101e-08, Final residual = 7.450307e-11, No Iterations 510
DILUPBiCGStab:  Solving for p_rgh, Initial residual = 1.699186e-09, Final residual = 9.796854e-11, No Iterations 18
time step continuity errors : sum local = 3.156654e-14, global = -3.782307e-15, cumulative = -4.007566e-09
DILUPBiCGStab:  Solving for p_rgh, Initial residual = 7.15573e-08, Final residual = 7.701792e-11, No Iterations 623
DILUPBiCGStab:  Solving for p_rgh, Initial residual = 1.476577e-09, Final residual = 8.207917e-11, No Iterations 98
DILUPBiCGStab:  Solving for p_rgh, Initial residual = 1.044125e-10, Final residual = 8.921005e-11, No Iterations 1
time step continuity errors : sum local = 5.676754e-14, global = -3.90018e-14, cumulative = -4.007605e-09
smoothSolver:  Solving for omega, Initial residual = 0.0002048328, Final residual = 2.288183e-09, No Iterations 6
smoothSolver:  Solving for k, Initial residual = 0.0005054733, Final residual = 3.286776e-09, No Iterations 6
PIMPLE: iteration 2
inverseDistance : detected 2 mesh regions
    zone:0 nCells:351564  voxels:(1000 1000 1) bb:(-0.65 -1.6625 -0.1) (0.65 1.5 0.1)
    zone:1 nCells:1920  voxels:(1000 1000 1) bb:(-0.65 -1.6625 -0.1) (0.65 1.5 0.1)
Overset analysis : nCells : 353484
    calculated   : 334204
    interpolated : 1150 (from local:0  mixed local/remote:0  remote:1150)
    hole         : 18130

Execution time for mesh.update() = 0.65 s
Mesh Courant Number mean: 7.800406e-05 max: 0.04074765
smoothSolver:  Solving for alpha.water, Initial residual = 7.55477e-07, Final residual = 1.898013e-12, No Iterations 4
Phase-1 volume fraction = 0.1046834  Min(alpha.water) = 0  Max(alpha.water) = 1
MULES: Correcting alpha.water
MULES: Correcting alpha.water
MULES: Correcting alpha.water
Phase-1 volume fraction = 0.1046834  Min(alpha.water) = 0  Max(alpha.water) = 1
DILUPBiCGStab:  Solving for p_rgh, Initial residual = 2.74853e-06, Final residual = 5.038479e-10, No Iterations 508
DILUPBiCGStab:  Solving for p_rgh, Initial residual = 4.458551e-08, Final residual = 9.84121e-11, No Iterations 314
DILUPBiCGStab:  Solving for p_rgh, Initial residual = 6.512338e-10, Final residual = 9.615215e-11, No Iterations 65
time step continuity errors : sum local = 6.506247e-14, global = 1.244685e-14, cumulative = -4.007592e-09
DILUPBiCGStab:  Solving for p_rgh, Initial residual = 4.158631e-08, Final residual = 2.486969e-11, No Iterations 522
DILUPBiCGStab:  Solving for p_rgh, Initial residual = 6.625665e-10, Final residual = 9.669136e-11, No Iterations 5
DILUPBiCGStab:  Solving for p_rgh, Initial residual = 1.020052e-10, Final residual = 9.486412e-11, No Iterations 3
time step continuity errors : sum local = 3.909544e-14, global = 2.233358e-14, cumulative = -4.00757e-09
DILUPBiCGStab:  Solving for p_rgh, Initial residual = 1.322862e-09, Final residual = 9.751437e-11, No Iterations 126
DILUPBiCGStab:  Solving for p_rgh, Initial residual = 1.038165e-10, Final residual = 9.96375e-11, No Iterations 42
DILUPBiCGStab:  Solving for p_rgh, Initial residual = 1.0952e-10, Final residual = 9.302028e-11, No Iterations 5
time step continuity errors : sum local = 5.756511e-14, global = 1.510526e-14, cumulative = -4.007555e-09
smoothSolver:  Solving for omega, Initial residual = 7.595626e-07, Final residual = 5.20954e-09, No Iterations 3
smoothSolver:  Solving for k, Initial residual = 8.401488e-07, Final residual = 3.567819e-09, No Iterations 1
ExecutionTime = 74.2 s  ClockTime = 74 s

Courant Number mean: 0.0009849897 max: 1.011148
Interface Courant Number mean: 3.066065e-06 max: 0.04614169
deltaT = 7.735777e-07
Time = 0.000504137

PIMPLE: iteration 1
inverseDistance : detected 2 mesh regions
    zone:0 nCells:351564  voxels:(1000 1000 1) bb:(-0.65 -1.6625 -0.1) (0.65 1.5 0.1)
    zone:1 nCells:1920  voxels:(1000 1000 1) bb:(-0.65 -1.6625 -0.1) (0.65 1.5 0.1)
Overset analysis : nCells : 353484
    calculated   : 334204
    interpolated : 1150 (from local:0  mixed local/remote:0  remote:1150)
    hole         : 18130

Execution time for mesh.update() = 0.8 s
Mesh Courant Number mean: 7.716126e-05 max: 0.04030739
smoothSolver:  Solving for alpha.water, Initial residual = 1.263244e-06, Final residual = 4.100731e-12, No Iterations 4
Phase-1 volume fraction = 0.1046833  Min(alpha.water) = 0  Max(alpha.water) = 1
MULES: Correcting alpha.water
MULES: Correcting alpha.water
MULES: Correcting alpha.water
Phase-1 volume fraction = 0.1046833  Min(alpha.water) = 0  Max(alpha.water) = 1
DILUPBiCGStab:  Solving for p_rgh, Initial residual = 0.0003710945, Final residual = 2.935445e-07, No Iterations 567
DILUPBiCGStab:  Solving for p_rgh, Initial residual = 3.187559e-05, Final residual = 2.664636e-08, No Iterations 398
DILUPBiCGStab:  Solving for p_rgh, Initial residual = 7.604111e-07, Final residual = 3.652589e-10, No Iterations 411
time step continuity errors : sum local = 1.159153e-13, global = -9.526929e-15, cumulative = -4.007564e-09
DILUPBiCGStab:  Solving for p_rgh, Initial residual = 7.046467e-06, Final residual = 3.746722e-10, No Iterations 785
DILUPBiCGStab:  Solving for p_rgh, Initial residual = 6.225031e-08, Final residual = 9.190483e-11, No Iterations 308
DILUPBiCGStab:  Solving for p_rgh, Initial residual = 3.17331e-09, Final residual = 9.736201e-11, No Iterations 105
time step continuity errors : sum local = 2.69364e-14, global = -2.524934e-14, cumulative = -4.00759e-09
DILUPBiCGStab:  Solving for p_rgh, Initial residual = 1.308567e-07, Final residual = 1.303716e-10, No Iterations 574
DILUPBiCGStab:  Solving for p_rgh, Initial residual = 3.46741e-09, Final residual = 9.865124e-11, No Iterations 264
DILUPBiCGStab:  Solving for p_rgh, Initial residual = 2.37215e-10, Final residual = 9.718202e-11, No Iterations 43
time step continuity errors : sum local = 2.315703e-14, global = 1.008057e-14, cumulative = -4.00758e-09
smoothSolver:  Solving for omega, Initial residual = 0.0002022052, Final residual = 2.271739e-09, No Iterations 6
smoothSolver:  Solving for k, Initial residual = 0.0005004102, Final residual = 3.21919e-09, No Iterations 6
PIMPLE: iteration 2
inverseDistance : detected 2 mesh regions
    zone:0 nCells:351564  voxels:(1000 1000 1) bb:(-0.65 -1.6625 -0.1) (0.65 1.5 0.1)
    zone:1 nCells:1920  voxels:(1000 1000 1) bb:(-0.65 -1.6625 -0.1) (0.65 1.5 0.1)
Overset analysis : nCells : 353484
    calculated   : 334204
    interpolated : 1150 (from local:0  mixed local/remote:0  remote:1150)
    hole         : 18130

Execution time for mesh.update() = 1.08 s
Mesh Courant Number mean: 7.716126e-05 max: 0.04030739
smoothSolver:  Solving for alpha.water, Initial residual = 7.546207e-07, Final residual = 1.32338e-12, No Iterations 4
Phase-1 volume fraction = 0.1046833  Min(alpha.water) = 0  Max(alpha.water) = 1
MULES: Correcting alpha.water
MULES: Correcting alpha.water
MULES: Correcting alpha.water
Phase-1 volume fraction = 0.1046833  Min(alpha.water) = 0  Max(alpha.water) = 1
DILUPBiCGStab:  Solving for p_rgh, Initial residual = 6.057219e-06, Final residual = 4.645355e-09, No Iterations 443
DILUPBiCGStab:  Solving for p_rgh, Initial residual = 3.59669e-08, Final residual = 4.517485e-11, No Iterations 359
DILUPBiCGStab:  Solving for p_rgh, Initial residual = 2.696063e-09, Final residual = 9.8649e-11, No Iterations 8
time step continuity errors : sum local = 1.619571e-14, global = 6.456525e-16, cumulative = -4.007579e-09
DILUPBiCGStab:  Solving for p_rgh, Initial residual = 1.017533e-07, Final residual = 9.133297e-11, No Iterations 485
DILUPBiCGStab:  Solving for p_rgh, Initial residual = 7.45202e-10, Final residual = 9.768119e-11, No Iterations 112
DILUPBiCGStab:  Solving for p_rgh, Initial residual = 1.307785e-10, Final residual = 9.49014e-11, No Iterations 8
time step continuity errors : sum local = 2.118522e-14, global = -1.808535e-14, cumulative = -4.007597e-09
DILUPBiCGStab:  Solving for p_rgh, Initial residual = 2.638303e-09, Final residual = 9.747632e-11, No Iterations 127
DILUPBiCGStab:  Solving for p_rgh, Initial residual = 1.176709e-10, Final residual = 9.997017e-11, No Iterations 1
DILUPBiCGStab:  Solving for p_rgh, Initial residual = 1.001855e-10, Final residual = 9.748727e-11, No Iterations 5
time step continuity errors : sum local = 2.316034e-14, global = -1.285385e-14, cumulative = -4.00761e-09
smoothSolver:  Solving for omega, Initial residual = 6.738441e-07, Final residual = 5.128228e-09, No Iterations 3
smoothSolver:  Solving for k, Initial residual = 3.723853e-07, Final residual = 2.888711e-09, No Iterations 1
ExecutionTime = 83.26 s  ClockTime = 83 s

Courant Number mean: 0.0009809695 max: 1.001871
Interface Courant Number mean: 3.027647e-06 max: 0.04590578
deltaT = 7.723727e-07
Time = 0.000504909

PIMPLE: iteration 1
inverseDistance : detected 2 mesh regions
    zone:0 nCells:351564  voxels:(1000 1000 1) bb:(-0.65 -1.6625 -0.1) (0.65 1.5 0.1)
    zone:1 nCells:1920  voxels:(1000 1000 1) bb:(-0.65 -1.6625 -0.1) (0.65 1.5 0.1)
Overset analysis : nCells : 353484
    calculated   : 334204
    interpolated : 1150 (from local:0  mixed local/remote:0  remote:1150)
    hole         : 18130

Execution time for mesh.update() = 1.04 s
Mesh Courant Number mean: 7.704873e-05 max: 0.0402486
smoothSolver:  Solving for alpha.water, Initial residual = 1.262824e-06, Final residual = 4.118753e-12, No Iterations 4
Phase-1 volume fraction = 0.1046833  Min(alpha.water) = 0  Max(alpha.water) = 1
MULES: Correcting alpha.water
MULES: Correcting alpha.water
MULES: Correcting alpha.water
Phase-1 volume fraction = 0.1046833  Min(alpha.water) = 0  Max(alpha.water) = 1
DILUPBiCGStab:  Solving for p_rgh, Initial residual = 0.0008568346, Final residual = 5.178752e-07, No Iterations 699
DILUPBiCGStab:  Solving for p_rgh, Initial residual = 0.0001095323, Final residual = 7.997818e-08, No Iterations 161
DILUPBiCGStab:  Solving for p_rgh, Initial residual = 3.011652e-06, Final residual = 2.896085e-09, No Iterations 420
time step continuity errors : sum local = 1.495587e-13, global = -7.489346e-15, cumulative = -4.007617e-09
DILUPBiCGStab:  Solving for p_rgh, Initial residual = 3.45706e-05, Final residual = 2.969374e-08, No Iterations 407
DILUPBiCGStab:  Solving for p_rgh, Initial residual = 7.688293e-07, Final residual = 6.860286e-10, No Iterations 365
DILUPBiCGStab:  Solving for p_rgh, Initial residual = 3.357292e-08, Final residual = 9.5515e-11, No Iterations 299
time step continuity errors : sum local = 5.006658e-15, global = -1.493051e-15, cumulative = -4.007619e-09
DILUPBiCGStab:  Solving for p_rgh, Initial residual = 5.953849e-07, Final residual = 2.153983e-10, No Iterations 628
DILUPBiCGStab:  Solving for p_rgh, Initial residual = 1.594302e-08, Final residual = 8.787908e-11, No Iterations 97
DILUPBiCGStab:  Solving for p_rgh, Initial residual = 8.379777e-10, Final residual = 7.867502e-11, No Iterations 25
time step continuity errors : sum local = 2.894708e-15, global = -1.438958e-16, cumulative = -4.007619e-09
smoothSolver:  Solving for omega, Initial residual = 0.0002006664, Final residual = 2.269664e-09, No Iterations 6
smoothSolver:  Solving for k, Initial residual = 0.0004992212, Final residual = 3.220888e-09, No Iterations 6
PIMPLE: iteration 2
inverseDistance : detected 2 mesh regions
    zone:0 nCells:351564  voxels:(1000 1000 1) bb:(-0.65 -1.6625 -0.1) (0.65 1.5 0.1)
    zone:1 nCells:1920  voxels:(1000 1000 1) bb:(-0.65 -1.6625 -0.1) (0.65 1.5 0.1)
Overset analysis : nCells : 353484
    calculated   : 334204
    interpolated : 1150 (from local:0  mixed local/remote:0  remote:1150)
    hole         : 18130

Execution time for mesh.update() = 0.92 s
Mesh Courant Number mean: 7.704873e-05 max: 0.0402486
smoothSolver:  Solving for alpha.water, Initial residual = 7.578271e-07, Final residual = 1.283444e-12, No Iterations 4
Phase-1 volume fraction = 0.1046833  Min(alpha.water) = 0  Max(alpha.water) = 1
MULES: Correcting alpha.water
MULES: Correcting alpha.water
MULES: Correcting alpha.water
Phase-1 volume fraction = 0.1046833  Min(alpha.water) = 0  Max(alpha.water) = 1
DILUPBiCGStab:  Solving for p_rgh, Initial residual = 3.191827e-05, Final residual = 2.890259e-08, No Iterations 522
DILUPBiCGStab:  Solving for p_rgh, Initial residual = 2.036831e-07, Final residual = 1.629328e-10, No Iterations 380
DILUPBiCGStab:  Solving for p_rgh, Initial residual = 1.730815e-08, Final residual = 7.969431e-11, No Iterations 124
time step continuity errors : sum local = 2.465582e-15, global = -7.326026e-16, cumulative = -4.00762e-09
DILUPBiCGStab:  Solving for p_rgh, Initial residual = 5.264258e-07, Final residual = 4.202616e-10, No Iterations 555
DILUPBiCGStab:  Solving for p_rgh, Initial residual = 2.019451e-09, Final residual = 9.973304e-11, No Iterations 197
DILUPBiCGStab:  Solving for p_rgh, Initial residual = 3.627922e-10, Final residual = 9.690515e-11, No Iterations 133
time step continuity errors : sum local = 4.953351e-15, global = 4.377044e-15, cumulative = -4.007615e-09
DILUPBiCGStab:  Solving for p_rgh, Initial residual = 1.050277e-08, Final residual = 8.990987e-11, No Iterations 109
DILUPBiCGStab:  Solving for p_rgh, Initial residual = 1.207836e-10, Final residual = 9.767122e-11, No Iterations 1
DILUPBiCGStab:  Solving for p_rgh, Initial residual = 9.903563e-11, Final residual = 9.903563e-11, No Iterations 0
time step continuity errors : sum local = 3.958467e-15, global = 2.53675e-15, cumulative = -4.007613e-09
smoothSolver:  Solving for omega, Initial residual = 6.768414e-07, Final residual = 5.121635e-09, No Iterations 3
smoothSolver:  Solving for k, Initial residual = 9.245668e-08, Final residual = 3.214066e-09, No Iterations 1
ExecutionTime = 97.44 s  ClockTime = 98 s

Courant Number mean: 0.0009782197 max: 0.9974198
Interface Courant Number mean: 2.831872e-06 max: 0.04140655
deltaT = 7.747902e-07
Time = 0.000505684

PIMPLE: iteration 1
inverseDistance : detected 2 mesh regions
    zone:0 nCells:351564  voxels:(1000 1000 1) bb:(-0.65 -1.6625 -0.1) (0.65 1.5 0.1)
    zone:1 nCells:1920  voxels:(1000 1000 1) bb:(-0.65 -1.6625 -0.1) (0.65 1.5 0.1)
Overset analysis : nCells : 353484
    calculated   : 334204
    interpolated : 1150 (from local:0  mixed local/remote:0  remote:1150)
    hole         : 18130

Execution time for mesh.update() = 0.72 s
Mesh Courant Number mean: 7.729756e-05 max: 0.04037859
smoothSolver:  Solving for alpha.water, Initial residual = 1.264032e-06, Final residual = 4.138638e-12, No Iterations 4
Phase-1 volume fraction = 0.1046832  Min(alpha.water) = 0  Max(alpha.water) = 1
MULES: Correcting alpha.water
MULES: Correcting alpha.water
MULES: Correcting alpha.water
Phase-1 volume fraction = 0.1046832  Min(alpha.water) = 0  Max(alpha.water) = 1
DILUPBiCGStab:  Solving for p_rgh, Initial residual = 0.004224675, Final residual = 1.593651e-06, No Iterations 910
DILUPBiCGStab:  Solving for p_rgh, Initial residual = 1.330974e-05, Final residual = 1.306271e-08, No Iterations 163
DILUPBiCGStab:  Solving for p_rgh, Initial residual = 3.000933e-07, Final residual = 2.605293e-10, No Iterations 691
time step continuity errors : sum local = 5.832419e-14, global = -4.337417e-15, cumulative = -4.007617e-09
DILUPBiCGStab:  Solving for p_rgh, Initial residual = 6.770569e-06, Final residual = 6.492398e-09, No Iterations 741
DILUPBiCGStab:  Solving for p_rgh, Initial residual = 2.300481e-07, Final residual = 7.437225e-11, No Iterations 418
DILUPBiCGStab:  Solving for p_rgh, Initial residual = 6.5026e-09, Final residual = 8.916296e-11, No Iterations 41
time step continuity errors : sum local = 1.707765e-14, global = 5.864116e-15, cumulative = -4.007611e-09
DILUPBiCGStab:  Solving for p_rgh, Initial residual = 1.176384e-07, Final residual = 4.998375e-11, No Iterations 690
DILUPBiCGStab:  Solving for p_rgh, Initial residual = 2.97165e-09, Final residual = 9.909327e-11, No Iterations 20
DILUPBiCGStab:  Solving for p_rgh, Initial residual = 1.618918e-10, Final residual = 9.63924e-11, No Iterations 8
time step continuity errors : sum local = 1.502396e-14, global = -3.521826e-15, cumulative = -4.007615e-09
smoothSolver:  Solving for omega, Initial residual = 0.0002000542, Final residual = 2.277056e-09, No Iterations 6
smoothSolver:  Solving for k, Initial residual = 0.0004999023, Final residual = 3.237468e-09, No Iterations 6
PIMPLE: iteration 2
inverseDistance : detected 2 mesh regions
    zone:0 nCells:351564  voxels:(1000 1000 1) bb:(-0.65 -1.6625 -0.1) (0.65 1.5 0.1)
    zone:1 nCells:1920  voxels:(1000 1000 1) bb:(-0.65 -1.6625 -0.1) (0.65 1.5 0.1)
Overset analysis : nCells : 353484
    calculated   : 334204
    interpolated : 1150 (from local:0  mixed local/remote:0  remote:1150)
    hole         : 18130

Execution time for mesh.update() = 0.66 s
Mesh Courant Number mean: 7.729756e-05 max: 0.04037859
smoothSolver:  Solving for alpha.water, Initial residual = 7.617056e-07, Final residual = 1.303929e-12, No Iterations 4
Phase-1 volume fraction = 0.1046832  Min(alpha.water) = 0  Max(alpha.water) = 1
MULES: Correcting alpha.water
MULES: Correcting alpha.water
MULES: Correcting alpha.water
Phase-1 volume fraction = 0.1046832  Min(alpha.water) = 0  Max(alpha.water) = 1
DILUPBiCGStab:  Solving for p_rgh, Initial residual = 6.375619e-06, Final residual = 5.989087e-09, No Iterations 449
DILUPBiCGStab:  Solving for p_rgh, Initial residual = 7.553028e-08, Final residual = 8.843808e-11, No Iterations 328
DILUPBiCGStab:  Solving for p_rgh, Initial residual = 3.950549e-09, Final residual = 4.672591e-11, No Iterations 116
time step continuity errors : sum local = 9.68067e-15, global = -3.592783e-15, cumulative = -4.007618e-09
DILUPBiCGStab:  Solving for p_rgh, Initial residual = 1.059383e-07, Final residual = 5.890506e-12, No Iterations 802
DILUPBiCGStab:  Solving for p_rgh, Initial residual = 5.864464e-10, Final residual = 8.904993e-11, No Iterations 21
DILUPBiCGStab:  Solving for p_rgh, Initial residual = 1.046369e-10, Final residual = 8.695091e-11, No Iterations 1
time step continuity errors : sum local = 6.251869e-15, global = -1.601014e-16, cumulative = -4.007619e-09
DILUPBiCGStab:  Solving for p_rgh, Initial residual = 2.015204e-09, Final residual = 7.108405e-11, No Iterations 149
DILUPBiCGStab:  Solving for p_rgh, Initial residual = 7.669738e-11, Final residual = 7.669738e-11, No Iterations 0
DILUPBiCGStab:  Solving for p_rgh, Initial residual = 7.669738e-11, Final residual = 7.669738e-11, No Iterations 0
time step continuity errors : sum local = 8.139574e-15, global = -1.984492e-15, cumulative = -4.007621e-09
smoothSolver:  Solving for omega, Initial residual = 6.864957e-07, Final residual = 5.166196e-09, No Iterations 3
smoothSolver:  Solving for k, Initial residual = 2.328036e-07, Final residual = 3.545728e-09, No Iterations 1
ExecutionTime = 103.2 s  ClockTime = 104 s

Courant Number mean: 0.0009757034 max: 0.9952857
Interface Courant Number mean: 2.837944e-06 max: 0.04147844
deltaT = 7.784506e-07
Time = 0.000506462

PIMPLE: iteration 1
inverseDistance : detected 2 mesh regions
    zone:0 nCells:351564  voxels:(1000 1000 1) bb:(-0.65 -1.6625 -0.1) (0.65 1.5 0.1)
    zone:1 nCells:1920  voxels:(1000 1000 1) bb:(-0.65 -1.6625 -0.1) (0.65 1.5 0.1)
Overset analysis : nCells : 353484
    calculated   : 334204
    interpolated : 1150 (from local:0  mixed local/remote:0  remote:1150)
    hole         : 18130

Execution time for mesh.update() = 0.68 s
Mesh Courant Number mean: 7.767048e-05 max: 0.04057339
smoothSolver:  Solving for alpha.water, Initial residual = 1.265072e-06, Final residual = 4.15597e-12, No Iterations 4
Phase-1 volume fraction = 0.1046832  Min(alpha.water) = 0  Max(alpha.water) = 1
MULES: Correcting alpha.water
MULES: Correcting alpha.water
MULES: Correcting alpha.water
Phase-1 volume fraction = 0.1046832  Min(alpha.water) = 0  Max(alpha.water) = 1
DILUPBiCGStab:  Solving for p_rgh, Initial residual = 0.0007675513, Final residual = 3.740621e-07, No Iterations 725
DILUPBiCGStab:  Solving for p_rgh, Initial residual = 5.206871e-06, Final residual = 4.599605e-09, No Iterations 197
DILUPBiCGStab:  Solving for p_rgh, Initial residual = 1.240709e-07, Final residual = 5.706773e-11, No Iterations 413
time step continuity errors : sum local = 1.988136e-14, global = -2.667712e-15, cumulative = -4.007623e-09
DILUPBiCGStab:  Solving for p_rgh, Initial residual = 4.870986e-06, Final residual = 4.743704e-09, No Iterations 653
DILUPBiCGStab:  Solving for p_rgh, Initial residual = 1.859083e-07, Final residual = 1.390979e-10, No Iterations 402
DILUPBiCGStab:  Solving for p_rgh, Initial residual = 2.512842e-09, Final residual = 9.609147e-11, No Iterations 101
time step continuity errors : sum local = 3.133205e-14, global = -3.059777e-14, cumulative = -4.007654e-09
DILUPBiCGStab:  Solving for p_rgh, Initial residual = 8.551924e-08, Final residual = 9.149019e-11, No Iterations 524
DILUPBiCGStab:  Solving for p_rgh, Initial residual = 1.993106e-09, Final residual = 6.960684e-11, No Iterations 94
DILUPBiCGStab:  Solving for p_rgh, Initial residual = 1.040975e-10, Final residual = 7.128513e-11, No Iterations 1
time step continuity errors : sum local = 1.866927e-14, global = -7.190996e-15, cumulative = -4.007661e-09
smoothSolver:  Solving for omega, Initial residual = 0.0001997842, Final residual = 2.288325e-09, No Iterations 6
smoothSolver:  Solving for k, Initial residual = 0.0005011141, Final residual = 3.258461e-09, No Iterations 6
PIMPLE: iteration 2
inverseDistance : detected 2 mesh regions
    zone:0 nCells:351564  voxels:(1000 1000 1) bb:(-0.65 -1.6625 -0.1) (0.65 1.5 0.1)
    zone:1 nCells:1920  voxels:(1000 1000 1) bb:(-0.65 -1.6625 -0.1) (0.65 1.5 0.1)
Overset analysis : nCells : 353484
    calculated   : 334204
    interpolated : 1150 (from local:0  mixed local/remote:0  remote:1150)
    hole         : 18130

Execution time for mesh.update() = 0.69 s
Mesh Courant Number mean: 7.767048e-05 max: 0.04057339
smoothSolver:  Solving for alpha.water, Initial residual = 7.651676e-07, Final residual = 1.330321e-12, No Iterations 4
Phase-1 volume fraction = 0.1046832  Min(alpha.water) = 0  Max(alpha.water) = 1
MULES: Correcting alpha.water
MULES: Correcting alpha.water
MULES: Correcting alpha.water
Phase-1 volume fraction = 0.1046832  Min(alpha.water) = 0  Max(alpha.water) = 1
DILUPBiCGStab:  Solving for p_rgh, Initial residual = 4.503205e-06, Final residual = 3.324028e-09, No Iterations 466
DILUPBiCGStab:  Solving for p_rgh, Initial residual = 6.573654e-08, Final residual = 9.180057e-11, No Iterations 371
DILUPBiCGStab:  Solving for p_rgh, Initial residual = 1.548049e-09, Final residual = 6.885558e-11, No Iterations 119
time step continuity errors : sum local = 1.595699e-14, global = -2.361404e-15, cumulative = -4.007663e-09
DILUPBiCGStab:  Solving for p_rgh, Initial residual = 7.225759e-08, Final residual = 7.087216e-11, No Iterations 576
DILUPBiCGStab:  Solving for p_rgh, Initial residual = 6.17754e-10, Final residual = 7.929173e-11, No Iterations 20
DILUPBiCGStab:  Solving for p_rgh, Initial residual = 8.946222e-11, Final residual = 8.946222e-11, No Iterations 0
time step continuity errors : sum local = 2.058967e-14, global = -6.494261e-15, cumulative = -4.00767e-09
DILUPBiCGStab:  Solving for p_rgh, Initial residual = 1.397007e-09, Final residual = 9.38233e-11, No Iterations 135
DILUPBiCGStab:  Solving for p_rgh, Initial residual = 1.029712e-10, Final residual = 8.287487e-11, No Iterations 59
DILUPBiCGStab:  Solving for p_rgh, Initial residual = 8.832024e-11, Final residual = 8.832024e-11, No Iterations 0
time step continuity errors : sum local = 1.756487e-14, global = -3.954544e-15, cumulative = -4.007674e-09
smoothSolver:  Solving for omega, Initial residual = 6.871471e-07, Final residual = 5.233206e-09, No Iterations 3
smoothSolver:  Solving for k, Initial residual = 3.219223e-07, Final residual = 3.713247e-09, No Iterations 1
ExecutionTime = 109.44 s  ClockTime = 110 s

Courant Number mean: 0.0009725034 max: 0.9936533
Interface Courant Number mean: 2.712183e-06 max: 0.03991957
deltaT = 7.833932e-07
Time = 0.000507246

PIMPLE: iteration 1
inverseDistance : detected 2 mesh regions
    zone:0 nCells:351564  voxels:(1000 1000 1) bb:(-0.65 -1.6625 -0.1) (0.65 1.5 0.1)
    zone:1 nCells:1920  voxels:(1000 1000 1) bb:(-0.65 -1.6625 -0.1) (0.65 1.5 0.1)
Overset analysis : nCells : 353484
    calculated   : 334204
    interpolated : 1150 (from local:0  mixed local/remote:0  remote:1150)
    hole         : 18130

Execution time for mesh.update() = 0.67 s
Mesh Courant Number mean: 7.817146e-05 max: 0.04083509
smoothSolver:  Solving for alpha.water, Initial residual = 1.267192e-06, Final residual = 4.175116e-12, No Iterations 4
Phase-1 volume fraction = 0.1046831  Min(alpha.water) = 0  Max(alpha.water) = 1
MULES: Correcting alpha.water
MULES: Correcting alpha.water
MULES: Correcting alpha.water
Phase-1 volume fraction = 0.1046831  Min(alpha.water) = 0  Max(alpha.water) = 1
DILUPBiCGStab:  Solving for p_rgh, Initial residual = 0.000474621, Final residual = 4.381058e-07, No Iterations 420
DILUPBiCGStab:  Solving for p_rgh, Initial residual = 2.209145e-06, Final residual = 9.767075e-10, No Iterations 464
DILUPBiCGStab:  Solving for p_rgh, Initial residual = 2.052821e-07, Final residual = 1.050509e-10, No Iterations 179
time step continuity errors : sum local = 3.613638e-14, global = 2.179717e-14, cumulative = -4.007652e-09
DILUPBiCGStab:  Solving for p_rgh, Initial residual = 4.240551e-06, Final residual = 3.026717e-09, No Iterations 651
DILUPBiCGStab:  Solving for p_rgh, Initial residual = 1.734411e-07, Final residual = 1.361464e-10, No Iterations 385
DILUPBiCGStab:  Solving for p_rgh, Initial residual = 2.262894e-09, Final residual = 9.914375e-11, No Iterations 87
time step continuity errors : sum local = 2.924676e-14, global = -1.229899e-14, cumulative = -4.007664e-09
DILUPBiCGStab:  Solving for p_rgh, Initial residual = 7.539311e-08, Final residual = 1.726188e-11, No Iterations 611
DILUPBiCGStab:  Solving for p_rgh, Initial residual = 1.537649e-09, Final residual = 8.514103e-11, No Iterations 25
DILUPBiCGStab:  Solving for p_rgh, Initial residual = 9.772233e-11, Final residual = 9.772233e-11, No Iterations 0
time step continuity errors : sum local = 1.774524e-14, global = 2.866724e-15, cumulative = -4.007661e-09
smoothSolver:  Solving for omega, Initial residual = 0.0001998684, Final residual = 2.304361e-09, No Iterations 6
smoothSolver:  Solving for k, Initial residual = 0.0005036812, Final residual = 3.283688e-09, No Iterations 6
PIMPLE: iteration 2
inverseDistance : detected 2 mesh regions
    zone:0 nCells:351564  voxels:(1000 1000 1) bb:(-0.65 -1.6625 -0.1) (0.65 1.5 0.1)
    zone:1 nCells:1920  voxels:(1000 1000 1) bb:(-0.65 -1.6625 -0.1) (0.65 1.5 0.1)
Overset analysis : nCells : 353484
    calculated   : 334204
    interpolated : 1150 (from local:0  mixed local/remote:0  remote:1150)
    hole         : 18130

Execution time for mesh.update() = 0.89 s
Mesh Courant Number mean: 7.817146e-05 max: 0.04083509
smoothSolver:  Solving for alpha.water, Initial residual = 7.690796e-07, Final residual = 1.361287e-12, No Iterations 4
Phase-1 volume fraction = 0.1046831  Min(alpha.water) = 0  Max(alpha.water) = 1
MULES: Correcting alpha.water
MULES: Correcting alpha.water
MULES: Correcting alpha.water
Phase-1 volume fraction = 0.1046831  Min(alpha.water) = 0  Max(alpha.water) = 1
DILUPBiCGStab:  Solving for p_rgh, Initial residual = 3.791494e-06, Final residual = 3.369917e-09, No Iterations 686
DILUPBiCGStab:  Solving for p_rgh, Initial residual = 7.463297e-08, Final residual = 7.4456e-11, No Iterations 434
DILUPBiCGStab:  Solving for p_rgh, Initial residual = 2.476442e-09, Final residual = 9.625179e-11, No Iterations 69
time step continuity errors : sum local = 1.625471e-14, global = 1.91298e-15, cumulative = -4.00766e-09
DILUPBiCGStab:  Solving for p_rgh, Initial residual = 5.528181e-08, Final residual = 1.73891e-11, No Iterations 571
DILUPBiCGStab:  Solving for p_rgh, Initial residual = 5.586765e-10, Final residual = 9.648226e-11, No Iterations 17
DILUPBiCGStab:  Solving for p_rgh, Initial residual = 1.059396e-10, Final residual = 8.879192e-11, No Iterations 1
time step continuity errors : sum local = 1.53652e-14, global = -6.938371e-15, cumulative = -4.007667e-09
DILUPBiCGStab:  Solving for p_rgh, Initial residual = 1.089023e-09, Final residual = 9.566508e-11, No Iterations 241
DILUPBiCGStab:  Solving for p_rgh, Initial residual = 9.899977e-11, Final residual = 9.899977e-11, No Iterations 0
DILUPBiCGStab:  Solving for p_rgh, Initial residual = 9.899977e-11, Final residual = 9.899977e-11, No Iterations 0
time step continuity errors : sum local = 1.463371e-14, global = -1.017523e-14, cumulative = -4.007677e-09
smoothSolver:  Solving for omega, Initial residual = 6.810651e-07, Final residual = 5.318318e-09, No Iterations 3
smoothSolver:  Solving for k, Initial residual = 3.659838e-07, Final residual = 3.773244e-09, No Iterations 1
ExecutionTime = 119.03 s  ClockTime = 120 s

Courant Number mean: 0.0009698669 max: 0.9932803
Interface Courant Number mean: 2.729815e-06 max: 0.04008372
deltaT = 7.884069e-07
Time = 0.000508034

PIMPLE: iteration 1
inverseDistance : detected 2 mesh regions
    zone:0 nCells:351564  voxels:(1000 1000 1) bb:(-0.65 -1.6625 -0.1) (0.65 1.5 0.1)
    zone:1 nCells:1920  voxels:(1000 1000 1) bb:(-0.65 -1.6625 -0.1) (0.65 1.5 0.1)
Overset analysis : nCells : 353484
    calculated   : 334204
    interpolated : 1150 (from local:0  mixed local/remote:0  remote:1150)
    hole         : 18130

Execution time for mesh.update() = 0.72 s
Mesh Courant Number mean: 7.867967e-05 max: 0.04110057
smoothSolver:  Solving for alpha.water, Initial residual = 1.269091e-06, Final residual = 4.190494e-12, No Iterations 4
Phase-1 volume fraction = 0.1046831  Min(alpha.water) = 0  Max(alpha.water) = 1
MULES: Correcting alpha.water
MULES: Correcting alpha.water
MULES: Correcting alpha.water
Phase-1 volume fraction = 0.1046831  Min(alpha.water) = 0  Max(alpha.water) = 1
DILUPBiCGStab:  Solving for p_rgh, Initial residual = 0.0003665029, Final residual = 3.186054e-07, No Iterations 422
DILUPBiCGStab:  Solving for p_rgh, Initial residual = 9.130438e-07, Final residual = 5.341317e-10, No Iterations 499
DILUPBiCGStab:  Solving for p_rgh, Initial residual = 6.847442e-08, Final residual = 8.639591e-11, No Iterations 389
time step continuity errors : sum local = 3.4605e-14, global = -1.298347e-14, cumulative = -4.00769e-09
DILUPBiCGStab:  Solving for p_rgh, Initial residual = 3.966588e-06, Final residual = 3.498274e-09, No Iterations 714
DILUPBiCGStab:  Solving for p_rgh, Initial residual = 1.713482e-07, Final residual = 1.622507e-10, No Iterations 201
DILUPBiCGStab:  Solving for p_rgh, Initial residual = 1.905971e-09, Final residual = 8.422143e-11, No Iterations 111
time step continuity errors : sum local = 3.038776e-14, global = 8.26144e-15, cumulative = -4.007681e-09
DILUPBiCGStab:  Solving for p_rgh, Initial residual = 7.013863e-08, Final residual = 9.418123e-11, No Iterations 549
DILUPBiCGStab:  Solving for p_rgh, Initial residual = 1.402375e-09, Final residual = 8.232536e-11, No Iterations 85
DILUPBiCGStab:  Solving for p_rgh, Initial residual = 1.036926e-10, Final residual = 8.948942e-11, No Iterations 1
time step continuity errors : sum local = 2.438906e-14, global = -8.007856e-16, cumulative = -4.007682e-09
smoothSolver:  Solving for omega, Initial residual = 0.0001999301, Final residual = 2.323153e-09, No Iterations 6
smoothSolver:  Solving for k, Initial residual = 0.0005075737, Final residual = 3.307766e-09, No Iterations 6
PIMPLE: iteration 2
inverseDistance : detected 2 mesh regions
    zone:0 nCells:351564  voxels:(1000 1000 1) bb:(-0.65 -1.6625 -0.1) (0.65 1.5 0.1)
    zone:1 nCells:1920  voxels:(1000 1000 1) bb:(-0.65 -1.6625 -0.1) (0.65 1.5 0.1)
Overset analysis : nCells : 353484
    calculated   : 334204
    interpolated : 1150 (from local:0  mixed local/remote:0  remote:1150)
    hole         : 18130

Execution time for mesh.update() = 0.71 s
Mesh Courant Number mean: 7.867967e-05 max: 0.04110057
smoothSolver:  Solving for alpha.water, Initial residual = 7.745084e-07, Final residual = 1.376472e-12, No Iterations 4
Phase-1 volume fraction = 0.1046831  Min(alpha.water) = 0  Max(alpha.water) = 1
MULES: Correcting alpha.water
MULES: Correcting alpha.water
MULES: Correcting alpha.water
Phase-1 volume fraction = 0.1046831  Min(alpha.water) = 0  Max(alpha.water) = 1
DILUPBiCGStab:  Solving for p_rgh, Initial residual = 3.527349e-06, Final residual = 3.51278e-09, No Iterations 644
DILUPBiCGStab:  Solving for p_rgh, Initial residual = 6.924252e-08, Final residual = 6.492858e-11, No Iterations 371
DILUPBiCGStab:  Solving for p_rgh, Initial residual = 1.945864e-09, Final residual = 9.35508e-11, No Iterations 116
time step continuity errors : sum local = 2.885569e-14, global = -3.119305e-15, cumulative = -4.007685e-09
DILUPBiCGStab:  Solving for p_rgh, Initial residual = 5.170579e-08, Final residual = 4.315899e-11, No Iterations 581
DILUPBiCGStab:  Solving for p_rgh, Initial residual = 5.715817e-10, Final residual = 9.489675e-11, No Iterations 27
DILUPBiCGStab:  Solving for p_rgh, Initial residual = 1.034389e-10, Final residual = 8.922642e-11, No Iterations 1
time step continuity errors : sum local = 2.113146e-14, global = -5.87979e-15, cumulative = -4.007691e-09
DILUPBiCGStab:  Solving for p_rgh, Initial residual = 1.145568e-09, Final residual = 9.526977e-11, No Iterations 139
DILUPBiCGStab:  Solving for p_rgh, Initial residual = 1.167608e-10, Final residual = 9.974698e-11, No Iterations 53
DILUPBiCGStab:  Solving for p_rgh, Initial residual = 1.141e-10, Final residual = 9.42149e-11, No Iterations 10
time step continuity errors : sum local = 2.829009e-14, global = -1.874265e-15, cumulative = -4.007693e-09
smoothSolver:  Solving for omega, Initial residual = 6.775965e-07, Final residual = 5.395428e-09, No Iterations 3
smoothSolver:  Solving for k, Initial residual = 3.934572e-07, Final residual = 3.788328e-09, No Iterations 1
ExecutionTime = 128.93 s  ClockTime = 130 s

Courant Number mean: 0.0009669829 max: 0.9930087
Interface Courant Number mean: 2.748557e-06 max: 0.0402541
deltaT = 7.934934e-07
Time = 0.000508828

PIMPLE: iteration 1
inverseDistance : detected 2 mesh regions
    zone:0 nCells:351564  voxels:(1000 1000 1) bb:(-0.65 -1.6625 -0.1) (0.65 1.5 0.1)
    zone:1 nCells:1920  voxels:(1000 1000 1) bb:(-0.65 -1.6625 -0.1) (0.65 1.5 0.1)
Overset analysis : nCells : 353484
    calculated   : 334204
    interpolated : 1150 (from local:0  mixed local/remote:0  remote:1150)
    hole         : 18130

Execution time for mesh.update() = 0.73 s
Mesh Courant Number mean: 7.91953e-05 max: 0.04136993
smoothSolver:  Solving for alpha.water, Initial residual = 1.271247e-06, Final residual = 4.200542e-12, No Iterations 4
Phase-1 volume fraction = 0.1046831  Min(alpha.water) = 0  Max(alpha.water) = 1
MULES: Correcting alpha.water
MULES: Correcting alpha.water
MULES: Correcting alpha.water
Phase-1 volume fraction = 0.1046831  Min(alpha.water) = 0  Max(alpha.water) = 1
DILUPBiCGStab:  Solving for p_rgh, Initial residual = 0.0003124751, Final residual = 2.865669e-07, No Iterations 137
DILUPBiCGStab:  Solving for p_rgh, Initial residual = 5.605936e-07, Final residual = 5.346139e-10, No Iterations 641
DILUPBiCGStab:  Solving for p_rgh, Initial residual = 7.186804e-08, Final residual = 8.596141e-12, No Iterations 350
time step continuity errors : sum local = 3.259315e-15, global = 2.988518e-16, cumulative = -4.007693e-09
DILUPBiCGStab:  Solving for p_rgh, Initial residual = 3.821963e-06, Final residual = 1.860844e-09, No Iterations 682
DILUPBiCGStab:  Solving for p_rgh, Initial residual = 1.711813e-07, Final residual = 1.686993e-10, No Iterations 263
DILUPBiCGStab:  Solving for p_rgh, Initial residual = 1.830238e-09, Final residual = 9.479001e-11, No Iterations 123
time step continuity errors : sum local = 3.41188e-14, global = -2.968817e-14, cumulative = -4.007722e-09
DILUPBiCGStab:  Solving for p_rgh, Initial residual = 6.748537e-08, Final residual = 7.873371e-12, No Iterations 584
DILUPBiCGStab:  Solving for p_rgh, Initial residual = 1.340938e-09, Final residual = 9.891895e-11, No Iterations 19
DILUPBiCGStab:  Solving for p_rgh, Initial residual = 1.170524e-10, Final residual = 9.615788e-11, No Iterations 5
time step continuity errors : sum local = 1.317002e-14, global = 2.910083e-15, cumulative = -4.00772e-09
smoothSolver:  Solving for omega, Initial residual = 0.0001998785, Final residual = 2.342793e-09, No Iterations 6
smoothSolver:  Solving for k, Initial residual = 0.0005117277, Final residual = 3.330555e-09, No Iterations 6
PIMPLE: iteration 2
inverseDistance : detected 2 mesh regions
    zone:0 nCells:351564  voxels:(1000 1000 1) bb:(-0.65 -1.6625 -0.1) (0.65 1.5 0.1)
    zone:1 nCells:1920  voxels:(1000 1000 1) bb:(-0.65 -1.6625 -0.1) (0.65 1.5 0.1)
Overset analysis : nCells : 353484
    calculated   : 334204
    interpolated : 1150 (from local:0  mixed local/remote:0  remote:1150)
    hole         : 18130

Execution time for mesh.update() = 0.68 s
Mesh Courant Number mean: 7.91953e-05 max: 0.04136993
smoothSolver:  Solving for alpha.water, Initial residual = 7.784012e-07, Final residual = 1.399313e-12, No Iterations 4
Phase-1 volume fraction = 0.1046831  Min(alpha.water) = 0  Max(alpha.water) = 1
MULES: Correcting alpha.water
MULES: Correcting alpha.water
MULES: Correcting alpha.water
Phase-1 volume fraction = 0.1046831  Min(alpha.water) = 0  Max(alpha.water) = 1
DILUPBiCGStab:  Solving for p_rgh, Initial residual = 3.37382e-06, Final residual = 2.748692e-09, No Iterations 460
DILUPBiCGStab:  Solving for p_rgh, Initial residual = 5.92708e-08, Final residual = 9.874025e-11, No Iterations 441
DILUPBiCGStab:  Solving for p_rgh, Initial residual = 1.836355e-09, Final residual = 7.52603e-11, No Iterations 99
time step continuity errors : sum local = 1.990768e-14, global = -1.297161e-15, cumulative = -4.007721e-09
DILUPBiCGStab:  Solving for p_rgh, Initial residual = 5.258617e-08, Final residual = 8.200612e-11, No Iterations 665
DILUPBiCGStab:  Solving for p_rgh, Initial residual = 6.256953e-10, Final residual = 6.345499e-11, No Iterations 102
DILUPBiCGStab:  Solving for p_rgh, Initial residual = 9.493925e-11, Final residual = 9.493925e-11, No Iterations 0
time step continuity errors : sum local = 2.475317e-14, global = 1.416562e-15, cumulative = -4.007719e-09
DILUPBiCGStab:  Solving for p_rgh, Initial residual = 1.223021e-09, Final residual = 9.345867e-11, No Iterations 112
DILUPBiCGStab:  Solving for p_rgh, Initial residual = 1.048306e-10, Final residual = 9.775829e-11, No Iterations 66
DILUPBiCGStab:  Solving for p_rgh, Initial residual = 1.08388e-10, Final residual = 8.088278e-11, No Iterations 7
time step continuity errors : sum local = 2.161796e-14, global = -2.226291e-15, cumulative = -4.007722e-09
smoothSolver:  Solving for omega, Initial residual = 6.770306e-07, Final residual = 5.473531e-09, No Iterations 3
smoothSolver:  Solving for k, Initial residual = 3.792943e-07, Final residual = 3.822172e-09, No Iterations 1
ExecutionTime = 135.32 s  ClockTime = 136 s

Courant Number mean: 0.0009642584 max: 0.9930546
Interface Courant Number mean: 2.768218e-06 max: 0.04043403
deltaT = 7.986543e-07
Time = 0.000509626

PIMPLE: iteration 1
inverseDistance : detected 2 mesh regions
    zone:0 nCells:351564  voxels:(1000 1000 1) bb:(-0.65 -1.6625 -0.1) (0.65 1.5 0.1)
    zone:1 nCells:1920  voxels:(1000 1000 1) bb:(-0.65 -1.6625 -0.1) (0.65 1.5 0.1)
Overset analysis : nCells : 353484
    calculated   : 334204
    interpolated : 1150 (from local:0  mixed local/remote:0  remote:1150)
    hole         : 18130

Execution time for mesh.update() = 0.71 s
Mesh Courant Number mean: 7.971851e-05 max: 0.04164324
smoothSolver:  Solving for alpha.water, Initial residual = 1.273737e-06, Final residual = 4.213643e-12, No Iterations 4
Phase-1 volume fraction = 0.1046831  Min(alpha.water) = 0  Max(alpha.water) = 1
MULES: Correcting alpha.water
MULES: Correcting alpha.water
MULES: Correcting alpha.water
Phase-1 volume fraction = 0.1046831  Min(alpha.water) = 0  Max(alpha.water) = 1
DILUPBiCGStab:  Solving for p_rgh, Initial residual = 0.0002804608, Final residual = 8.06831e-08, No Iterations 409
DILUPBiCGStab:  Solving for p_rgh, Initial residual = 7.968582e-07, Final residual = 5.502746e-10, No Iterations 395
DILUPBiCGStab:  Solving for p_rgh, Initial residual = 1.835838e-08, Final residual = 9.9903e-11, No Iterations 134
time step continuity errors : sum local = 3.190012e-14, global = 2.690455e-14, cumulative = -4.007695e-09
DILUPBiCGStab:  Solving for p_rgh, Initial residual = 3.746779e-06, Final residual = 9.960402e-10, No Iterations 627
DILUPBiCGStab:  Solving for p_rgh, Initial residual = 1.703908e-07, Final residual = 1.701325e-10, No Iterations 338
DILUPBiCGStab:  Solving for p_rgh, Initial residual = 1.837372e-09, Final residual = 9.006532e-11, No Iterations 122
time step continuity errors : sum local = 2.808623e-14, global = -2.276557e-14, cumulative = -4.007718e-09
DILUPBiCGStab:  Solving for p_rgh, Initial residual = 6.64758e-08, Final residual = 9.964104e-11, No Iterations 563
DILUPBiCGStab:  Solving for p_rgh, Initial residual = 1.345969e-09, Final residual = 8.20271e-11, No Iterations 108
DILUPBiCGStab:  Solving for p_rgh, Initial residual = 1.152499e-10, Final residual = 9.543494e-11, No Iterations 1
time step continuity errors : sum local = 2.245833e-14, global = -1.580335e-14, cumulative = -4.007733e-09
smoothSolver:  Solving for omega, Initial residual = 0.000200294, Final residual = 2.364128e-09, No Iterations 6
smoothSolver:  Solving for k, Initial residual = 0.0005157944, Final residual = 3.351804e-09, No Iterations 6
PIMPLE: iteration 2
inverseDistance : detected 2 mesh regions
    zone:0 nCells:351564  voxels:(1000 1000 1) bb:(-0.65 -1.6625 -0.1) (0.65 1.5 0.1)
    zone:1 nCells:1920  voxels:(1000 1000 1) bb:(-0.65 -1.6625 -0.1) (0.65 1.5 0.1)
Overset analysis : nCells : 353484
    calculated   : 334204
    interpolated : 1150 (from local:0  mixed local/remote:0  remote:1150)
    hole         : 18130

Execution time for mesh.update() = 0.7 s
Mesh Courant Number mean: 7.971851e-05 max: 0.04164324
smoothSolver:  Solving for alpha.water, Initial residual = 7.822363e-07, Final residual = 1.469202e-12, No Iterations 4
Phase-1 volume fraction = 0.1046831  Min(alpha.water) = 0  Max(alpha.water) = 1
MULES: Correcting alpha.water
MULES: Correcting alpha.water
MULES: Correcting alpha.water
Phase-1 volume fraction = 0.1046831  Min(alpha.water) = 0  Max(alpha.water) = 1
DILUPBiCGStab:  Solving for p_rgh, Initial residual = 3.304353e-06, Final residual = 2.68381e-09, No Iterations 500
DILUPBiCGStab:  Solving for p_rgh, Initial residual = 5.865032e-08, Final residual = 9.852812e-11, No Iterations 441
DILUPBiCGStab:  Solving for p_rgh, Initial residual = 1.988029e-09, Final residual = 9.985728e-11, No Iterations 78
time step continuity errors : sum local = 1.797755e-14, global = -2.135195e-15, cumulative = -4.007735e-09
DILUPBiCGStab:  Solving for p_rgh, Initial residual = 5.512505e-08, Final residual = 1.658619e-11, No Iterations 635
DILUPBiCGStab:  Solving for p_rgh, Initial residual = 5.570643e-10, Final residual = 9.804032e-11, No Iterations 9
DILUPBiCGStab:  Solving for p_rgh, Initial residual = 1.093306e-10, Final residual = 7.607529e-11, No Iterations 5
time step continuity errors : sum local = 1.210313e-14, global = -2.909616e-15, cumulative = -4.007738e-09
DILUPBiCGStab:  Solving for p_rgh, Initial residual = 1.277371e-09, Final residual = 9.956767e-11, No Iterations 100
DILUPBiCGStab:  Solving for p_rgh, Initial residual = 1.036897e-10, Final residual = 9.551972e-11, No Iterations 39
DILUPBiCGStab:  Solving for p_rgh, Initial residual = 1.019406e-10, Final residual = 8.374641e-11, No Iterations 8
time step continuity errors : sum local = 1.342615e-14, global = -3.069442e-15, cumulative = -4.007741e-09
smoothSolver:  Solving for omega, Initial residual = 6.865886e-07, Final residual = 5.555058e-09, No Iterations 3
smoothSolver:  Solving for k, Initial residual = 3.523884e-07, Final residual = 3.694764e-09, No Iterations 1
ExecutionTime = 141.93 s  ClockTime = 143 s

Courant Number mean: 0.0009619255 max: 0.9935354
Interface Courant Number mean: 2.909649e-06 max: 0.04062536
deltaT = 8.038914e-07
Time = 0.00051043

PIMPLE: iteration 1
inverseDistance : detected 2 mesh regions
    zone:0 nCells:351564  voxels:(1000 1000 1) bb:(-0.65 -1.6625 -0.1) (0.65 1.5 0.1)
    zone:1 nCells:1920  voxels:(1000 1000 1) bb:(-0.65 -1.6625 -0.1) (0.65 1.5 0.1)
Overset analysis : nCells : 353484
    calculated   : 334204
    interpolated : 1150 (from local:0  mixed local/remote:0  remote:1150)
    hole         : 18130

Execution time for mesh.update() = 0.76 s
Mesh Courant Number mean: 8.024947e-05 max: 0.0419206
smoothSolver:  Solving for alpha.water, Initial residual = 1.276768e-06, Final residual = 4.235211e-12, No Iterations 4
Phase-1 volume fraction = 0.104683  Min(alpha.water) = 0  Max(alpha.water) = 1
MULES: Correcting alpha.water
MULES: Correcting alpha.water
MULES: Correcting alpha.water
Phase-1 volume fraction = 0.104683  Min(alpha.water) = 0  Max(alpha.water) = 1
DILUPBiCGStab:  Solving for p_rgh, Initial residual = 0.0002607483, Final residual = 1.780557e-07, No Iterations 568
DILUPBiCGStab:  Solving for p_rgh, Initial residual = 1.163654e-06, Final residual = 7.552347e-10, No Iterations 341
DILUPBiCGStab:  Solving for p_rgh, Initial residual = 5.139503e-08, Final residual = 9.379894e-11, No Iterations 411
time step continuity errors : sum local = 3.385052e-14, global = 7.712757e-15, cumulative = -4.007734e-09
DILUPBiCGStab:  Solving for p_rgh, Initial residual = 3.717305e-06, Final residual = 3.192231e-10, No Iterations 642
DILUPBiCGStab:  Solving for p_rgh, Initial residual = 1.708971e-07, Final residual = 1.705971e-10, No Iterations 161
DILUPBiCGStab:  Solving for p_rgh, Initial residual = 1.591398e-09, Final residual = 9.899905e-11, No Iterations 110
time step continuity errors : sum local = 3.436751e-14, global = 2.6246e-14, cumulative = -4.007707e-09
DILUPBiCGStab:  Solving for p_rgh, Initial residual = 6.613629e-08, Final residual = 4.319794e-11, No Iterations 611
DILUPBiCGStab:  Solving for p_rgh, Initial residual = 1.202376e-09, Final residual = 9.699196e-11, No Iterations 26
DILUPBiCGStab:  Solving for p_rgh, Initial residual = 1.169696e-10, Final residual = 9.677324e-11, No Iterations 6
time step continuity errors : sum local = 2.086699e-14, global = 1.602999e-14, cumulative = -4.007691e-09
smoothSolver:  Solving for omega, Initial residual = 0.0002008679, Final residual = 2.386191e-09, No Iterations 6
smoothSolver:  Solving for k, Initial residual = 0.0005198651, Final residual = 3.37121e-09, No Iterations 6
PIMPLE: iteration 2
inverseDistance : detected 2 mesh regions
    zone:0 nCells:351564  voxels:(1000 1000 1) bb:(-0.65 -1.6625 -0.1) (0.65 1.5 0.1)
    zone:1 nCells:1920  voxels:(1000 1000 1) bb:(-0.65 -1.6625 -0.1) (0.65 1.5 0.1)
Overset analysis : nCells : 353484
    calculated   : 334204
    interpolated : 1150 (from local:0  mixed local/remote:0  remote:1150)
    hole         : 18130

Execution time for mesh.update() = 0.9 s
Mesh Courant Number mean: 8.024947e-05 max: 0.0419206
smoothSolver:  Solving for alpha.water, Initial residual = 7.871765e-07, Final residual = 2.00292e-12, No Iterations 4
Phase-1 volume fraction = 0.104683  Min(alpha.water) = 0  Max(alpha.water) = 1
MULES: Correcting alpha.water
MULES: Correcting alpha.water
MULES: Correcting alpha.water
Phase-1 volume fraction = 0.104683  Min(alpha.water) = 0  Max(alpha.water) = 1
DILUPBiCGStab:  Solving for p_rgh, Initial residual = 3.334717e-06, Final residual = 2.085021e-09, No Iterations 565
DILUPBiCGStab:  Solving for p_rgh, Initial residual = 5.367272e-08, Final residual = 9.507237e-11, No Iterations 478
DILUPBiCGStab:  Solving for p_rgh, Initial residual = 1.870162e-09, Final residual = 9.97901e-11, No Iterations 65
time step continuity errors : sum local = 1.528405e-14, global = -1.200674e-15, cumulative = -4.007693e-09
DILUPBiCGStab:  Solving for p_rgh, Initial residual = 5.83947e-08, Final residual = 7.709512e-11, No Iterations 582
DILUPBiCGStab:  Solving for p_rgh, Initial residual = 5.879085e-10, Final residual = 9.358291e-11, No Iterations 88
DILUPBiCGStab:  Solving for p_rgh, Initial residual = 1.122905e-10, Final residual = 9.197009e-11, No Iterations 6
time step continuity errors : sum local = 1.953261e-14, global = 3.987218e-15, cumulative = -4.007689e-09
DILUPBiCGStab:  Solving for p_rgh, Initial residual = 1.365005e-09, Final residual = 6.918565e-11, No Iterations 154
DILUPBiCGStab:  Solving for p_rgh, Initial residual = 7.515176e-11, Final residual = 7.515176e-11, No Iterations 0
DILUPBiCGStab:  Solving for p_rgh, Initial residual = 7.515176e-11, Final residual = 7.515176e-11, No Iterations 0
time step continuity errors : sum local = 1.147863e-14, global = -1.328485e-15, cumulative = -4.00769e-09
smoothSolver:  Solving for omega, Initial residual = 6.86409e-07, Final residual = 5.64062e-09, No Iterations 3
smoothSolver:  Solving for k, Initial residual = 3.171428e-07, Final residual = 3.576433e-09, No Iterations 1
ExecutionTime = 152.1 s  ClockTime = 153 s

Courant Number mean: 0.0009601119 max: 0.9945078
Interface Courant Number mean: 2.931016e-06 max: 0.04082895
deltaT = 8.07871e-07
Time = 0.000511238

PIMPLE: iteration 1
inverseDistance : detected 2 mesh regions
    zone:0 nCells:351564  voxels:(1000 1000 1) bb:(-0.65 -1.6625 -0.1) (0.65 1.5 0.1)
    zone:1 nCells:1920  voxels:(1000 1000 1) bb:(-0.65 -1.6625 -0.1) (0.65 1.5 0.1)
Overset analysis : nCells : 353484
    calculated   : 334204
    interpolated : 1150 (from local:0  mixed local/remote:0  remote:1150)
    hole         : 18130

Execution time for mesh.update() = 1.06 s
Mesh Courant Number mean: 8.065505e-05 max: 0.04213247
smoothSolver:  Solving for alpha.water, Initial residual = 1.278237e-06, Final residual = 4.257175e-12, No Iterations 4
Phase-1 volume fraction = 0.104683  Min(alpha.water) = 0  Max(alpha.water) = 1
MULES: Correcting alpha.water
MULES: Correcting alpha.water
MULES: Correcting alpha.water
Phase-1 volume fraction = 0.104683  Min(alpha.water) = 0  Max(alpha.water) = 1
DILUPBiCGStab:  Solving for p_rgh, Initial residual = 0.0002440078, Final residual = 1.989463e-07, No Iterations 386
DILUPBiCGStab:  Solving for p_rgh, Initial residual = 1.354235e-06, Final residual = 1.212827e-09, No Iterations 454
DILUPBiCGStab:  Solving for p_rgh, Initial residual = 5.122726e-08, Final residual = 9.765751e-11, No Iterations 268
time step continuity errors : sum local = 3.07276e-14, global = 1.787912e-14, cumulative = -4.007672e-09
DILUPBiCGStab:  Solving for p_rgh, Initial residual = 3.713056e-06, Final residual = 3.511677e-09, No Iterations 634
DILUPBiCGStab:  Solving for p_rgh, Initial residual = 1.756239e-07, Final residual = 1.434082e-10, No Iterations 370
DILUPBiCGStab:  Solving for p_rgh, Initial residual = 2.376144e-09, Final residual = 9.747782e-11, No Iterations 125
time step continuity errors : sum local = 3.170934e-14, global = -2.768915e-14, cumulative = -4.0077e-09
DILUPBiCGStab:  Solving for p_rgh, Initial residual = 6.630139e-08, Final residual = 8.806188e-12, No Iterations 588
DILUPBiCGStab:  Solving for p_rgh, Initial residual = 1.208663e-09, Final residual = 9.704736e-11, No Iterations 23
DILUPBiCGStab:  Solving for p_rgh, Initial residual = 1.177727e-10, Final residual = 8.830918e-11, No Iterations 6
time step continuity errors : sum local = 1.148943e-14, global = 2.719934e-15, cumulative = -4.007697e-09
smoothSolver:  Solving for omega, Initial residual = 0.0002010867, Final residual = 2.403491e-09, No Iterations 6
smoothSolver:  Solving for k, Initial residual = 0.000523104, Final residual = 3.383395e-09, No Iterations 6
PIMPLE: iteration 2
inverseDistance : detected 2 mesh regions
    zone:0 nCells:351564  voxels:(1000 1000 1) bb:(-0.65 -1.6625 -0.1) (0.65 1.5 0.1)
    zone:1 nCells:1920  voxels:(1000 1000 1) bb:(-0.65 -1.6625 -0.1) (0.65 1.5 0.1)
Overset analysis : nCells : 353484
    calculated   : 334204
    interpolated : 1150 (from local:0  mixed local/remote:0  remote:1150)
    hole         : 18130

Execution time for mesh.update() = 0.74 s
Mesh Courant Number mean: 8.065505e-05 max: 0.04213247
smoothSolver:  Solving for alpha.water, Initial residual = 7.893351e-07, Final residual = 1.584091e-12, No Iterations 4
Phase-1 volume fraction = 0.104683  Min(alpha.water) = 0  Max(alpha.water) = 1
MULES: Correcting alpha.water
MULES: Correcting alpha.water
MULES: Correcting alpha.water
Phase-1 volume fraction = 0.104683  Min(alpha.water) = 0  Max(alpha.water) = 1
DILUPBiCGStab:  Solving for p_rgh, Initial residual = 3.361654e-06, Final residual = 3.065587e-09, No Iterations 559
DILUPBiCGStab:  Solving for p_rgh, Initial residual = 4.909187e-08, Final residual = 5.616849e-11, No Iterations 477
DILUPBiCGStab:  Solving for p_rgh, Initial residual = 2.361406e-09, Final residual = 8.906507e-11, No Iterations 77
time step continuity errors : sum local = 1.601715e-14, global = 7.894972e-16, cumulative = -4.007696e-09
DILUPBiCGStab:  Solving for p_rgh, Initial residual = 6.095443e-08, Final residual = 8.626178e-11, No Iterations 448
DILUPBiCGStab:  Solving for p_rgh, Initial residual = 5.438777e-10, Final residual = 8.066508e-11, No Iterations 178
DILUPBiCGStab:  Solving for p_rgh, Initial residual = 1.070143e-10, Final residual = 8.653483e-11, No Iterations 1
time step continuity errors : sum local = 2.529873e-14, global = 1.495107e-14, cumulative = -4.007681e-09
DILUPBiCGStab:  Solving for p_rgh, Initial residual = 1.406188e-09, Final residual = 9.328184e-11, No Iterations 106
DILUPBiCGStab:  Solving for p_rgh, Initial residual = 1.067644e-10, Final residual = 9.98242e-11, No Iterations 11
DILUPBiCGStab:  Solving for p_rgh, Initial residual = 1.016212e-10, Final residual = 8.65097e-11, No Iterations 2
time step continuity errors : sum local = 2.036424e-14, global = 1.055529e-14, cumulative = -4.007671e-09
smoothSolver:  Solving for omega, Initial residual = 6.845802e-07, Final residual = 5.70033e-09, No Iterations 3
smoothSolver:  Solving for k, Initial residual = 2.941882e-07, Final residual = 3.544555e-09, No Iterations 1
ExecutionTime = 160.23 s  ClockTime = 161 s

Courant Number mean: 0.0009573137 max: 0.9943592
Interface Courant Number mean: 2.947971e-06 max: 0.04097756
deltaT = 8.11897e-07
Time = 0.00051205

PIMPLE: iteration 1
inverseDistance : detected 2 mesh regions
    zone:0 nCells:351564  voxels:(1000 1000 1) bb:(-0.65 -1.6625 -0.1) (0.65 1.5 0.1)
[...]
DILUPBiCGStab:  Solving for p_rgh, Initial residual = 3.366107e-07, Final residual = 2.451296e-10, No Iterations 546
DILUPBiCGStab:  Solving for p_rgh, Initial residual = 1.569336e-08, Final residual = 9.991836e-11, No Iterations 280
DILUPBiCGStab:  Solving for p_rgh, Initial residual = 5.207419e-10, Final residual = 9.975139e-11, No Iterations 34
time step continuity errors : sum local = 1.759468e-15, global = 1.244547e-15, cumulative = -1.110856e-07
smoothSolver:  Solving for omega, Initial residual = 0.0002005493, Final residual = 1.514548e-09, No Iterations 6
smoothSolver:  Solving for k, Initial residual = 0.000443572, Final residual = 1.471498e-09, No Iterations 6
PIMPLE: iteration 2
inverseDistance : detected 2 mesh regions
    zone:0 nCells:351564  voxels:(1000 1000 1) bb:(-0.65 -1.6625 -0.1) (0.65 1.5 0.1)
    zone:1 nCells:1920  voxels:(1000 1000 1) bb:(-0.65 -1.6625 -0.1) (0.65 1.5 0.1)
Overset analysis : nCells : 353484
    calculated   : 334204
    interpolated : 1150 (from local:0  mixed local/remote:0  remote:1150)
    hole         : 18130

Execution time for mesh.update() = 0.66 s
Mesh Courant Number mean: 8.658798e-05 max: 0.0452317
smoothSolver:  Solving for alpha.water, Initial residual = 1.041974e-06, Final residual = 4.469959e-12, No Iterations 4
Phase-1 volume fraction = 0.1046891  Min(alpha.water) = 0  Max(alpha.water) = 1
MULES: Correcting alpha.water
MULES: Correcting alpha.water
MULES: Correcting alpha.water
Phase-1 volume fraction = 0.1046891  Min(alpha.water) = 0  Max(alpha.water) = 1
DILUPBiCGStab:  Solving for p_rgh, Initial residual = 1.115681e-05, Final residual = 5.337986e-09, No Iterations 727
DILUPBiCGStab:  Solving for p_rgh, Initial residual = 2.08375e-07, Final residual = 2.053308e-10, No Iterations 378
DILUPBiCGStab:  Solving for p_rgh, Initial residual = 8.039897e-09, Final residual = 6.983289e-11, No Iterations 128
time step continuity errors : sum local = 1.523161e-15, global = 3.988891e-16, cumulative = -1.110856e-07
DILUPBiCGStab:  Solving for p_rgh, Initial residual = 1.611869e-07, Final residual = 9.612837e-11, No Iterations 575
DILUPBiCGStab:  Solving for p_rgh, Initial residual = 4.614763e-09, Final residual = 9.610738e-11, No Iterations 62
DILUPBiCGStab:  Solving for p_rgh, Initial residual = 1.830261e-10, Final residual = 9.851844e-11, No Iterations 9
time step continuity errors : sum local = 1.841835e-15, global = -8.663238e-17, cumulative = -1.110856e-07
DILUPBiCGStab:  Solving for p_rgh, Initial residual = 4.197267e-09, Final residual = 8.411878e-11, No Iterations 173
DILUPBiCGStab:  Solving for p_rgh, Initial residual = 1.406821e-10, Final residual = 9.453552e-11, No Iterations 1
DILUPBiCGStab:  Solving for p_rgh, Initial residual = 9.590736e-11, Final residual = 9.590736e-11, No Iterations 0
time step continuity errors : sum local = 2.122423e-15, global = 1.250499e-15, cumulative = -1.110856e-07
smoothSolver:  Solving for omega, Initial residual = 3.223137e-07, Final residual = 2.608879e-09, No Iterations 3
smoothSolver:  Solving for k, Initial residual = 3.732073e-08, Final residual = 4.389111e-09, No Iterations 1
ExecutionTime = 2882.17 s  ClockTime = 2920 s

Courant Number mean: 0.001041025 max: 1.000815
Interface Courant Number mean: 2.6437e-06 max: 0.00468987
deltaT = 8.449409e-07
Time = 0.000742293

PIMPLE: iteration 1
inverseDistance : detected 2 mesh regions
    zone:0 nCells:351564  voxels:(1000 1000 1) bb:(-0.65 -1.6625 -0.1) (0.65 1.5 0.1)
    zone:1 nCells:1920  voxels:(1000 1000 1) bb:(-0.65 -1.6625 -0.1) (0.65 1.5 0.1)
Overset analysis : nCells : 353484
    calculated   : 334104
    interpolated : 1152 (from local:0  mixed local/remote:0  remote:1152)
    hole         : 18228

Execution time for mesh.update() = 0.65 s
Mesh Courant Number mean: 8.668632e-05 max: 0.04523551
smoothSolver:  Solving for alpha.water, Initial residual = 1.463163e-06, Final residual = 6.643131e-12, No Iterations 4
Phase-1 volume fraction = 0.1046891  Min(alpha.water) = 0  Max(alpha.water) = 1
MULES: Correcting alpha.water
MULES: Correcting alpha.water
MULES: Correcting alpha.water
Phase-1 volume fraction = 0.1046891  Min(alpha.water) = 0  Max(alpha.water) = 1
DILUPBiCGStab:  Solving for p_rgh, Initial residual = 0.00938141, Final residual = 4.995454e-06, No Iterations 594
DILUPBiCGStab:  Solving for p_rgh, Initial residual = 1.605435e-05, Final residual = 1.035908e-08, No Iterations 467
DILUPBiCGStab:  Solving for p_rgh, Initial residual = 7.678509e-08, Final residual = 9.737351e-11, No Iterations 533
time step continuity errors : sum local = 2.822282e-13, global = -1.089518e-13, cumulative = -1.110857e-07
DILUPBiCGStab:  Solving for p_rgh, Initial residual = 2.251836e-06, Final residual = 1.70022e-09, No Iterations 757
DILUPBiCGStab:  Solving for p_rgh, Initial residual = 1.265628e-07, Final residual = 4.817665e-11, No Iterations 470
DILUPBiCGStab:  Solving for p_rgh, Initial residual = 1.320046e-09, Final residual = 8.582374e-11, No Iterations 76
time step continuity errors : sum local = 1.372729e-13, global = -8.401898e-14, cumulative = -1.110858e-07
DILUPBiCGStab:  Solving for p_rgh, Initial residual = 4.471343e-08, Final residual = 6.002852e-11, No Iterations 617
DILUPBiCGStab:  Solving for p_rgh, Initial residual = 7.966212e-10, Final residual = 9.94884e-11, No Iterations 40
DILUPBiCGStab:  Solving for p_rgh, Initial residual = 1.103056e-10, Final residual = 9.553385e-11, No Iterations 11
time step continuity errors : sum local = 1.778332e-13, global = -7.836764e-14, cumulative = -1.110858e-07
smoothSolver:  Solving for omega, Initial residual = 0.0002122562, Final residual = 1.502305e-09, No Iterations 6
smoothSolver:  Solving for k, Initial residual = 0.0004424557, Final residual = 1.429082e-09, No Iterations 6
PIMPLE: iteration 2
inverseDistance : detected 2 mesh regions
    zone:0 nCells:351564  voxels:(1000 1000 1) bb:(-0.65 -1.6625 -0.1) (0.65 1.5 0.1)
    zone:1 nCells:1920  voxels:(1000 1000 1) bb:(-0.65 -1.6625 -0.1) (0.65 1.5 0.1)
Overset analysis : nCells : 353484
    calculated   : 334104
    interpolated : 1152 (from local:0  mixed local/remote:0  remote:1152)
    hole         : 18228

Execution time for mesh.update() = 0.64 s
Mesh Courant Number mean: 8.668632e-05 max: 0.04523551
smoothSolver:  Solving for alpha.water, Initial residual = 1.067967e-06, Final residual = 9.855394e-11, No Iterations 3
Phase-1 volume fraction = 0.1046891  Min(alpha.water) = 0  Max(alpha.water) = 1
MULES: Correcting alpha.water
MULES: Correcting alpha.water
MULES: Correcting alpha.water
Phase-1 volume fraction = 0.1046891  Min(alpha.water) = 0  Max(alpha.water) = 1
DILUPBiCGStab:  Solving for p_rgh, Initial residual = 1.503507e-06, Final residual = 1.478754e-09, No Iterations 572
DILUPBiCGStab:  Solving for p_rgh, Initial residual = 5.829136e-08, Final residual = 7.197161e-11, No Iterations 468
DILUPBiCGStab:  Solving for p_rgh, Initial residual = 1.188313e-09, Final residual = 9.464883e-11, No Iterations 18
time step continuity errors : sum local = 1.995854e-13, global = -1.892506e-14, cumulative = -1.110859e-07
DILUPBiCGStab:  Solving for p_rgh, Initial residual = 1.847859e-08, Final residual = 9.151287e-11, No Iterations 395
DILUPBiCGStab:  Solving for p_rgh, Initial residual = 4.228138e-10, Final residual = 8.781386e-11, No Iterations 91
DILUPBiCGStab:  Solving for p_rgh, Initial residual = 1.056609e-10, Final residual = 9.097388e-11, No Iterations 1
time step continuity errors : sum local = 1.682899e-13, global = 4.329777e-15, cumulative = -1.110858e-07
DILUPBiCGStab:  Solving for p_rgh, Initial residual = 4.900276e-10, Final residual = 9.867883e-11, No Iterations 51
DILUPBiCGStab:  Solving for p_rgh, Initial residual = 1.008244e-10, Final residual = 9.309402e-11, No Iterations 63
DILUPBiCGStab:  Solving for p_rgh, Initial residual = 1.057112e-10, Final residual = 9.981835e-11, No Iterations 3
time step continuity errors : sum local = 1.360381e-13, global = -3.029523e-14, cumulative = -1.110859e-07
smoothSolver:  Solving for omega, Initial residual = 3.642188e-07, Final residual = 2.675748e-09, No Iterations 3
smoothSolver:  Solving for k, Initial residual = 8.508379e-07, Final residual = 8.56116e-09, No Iterations 1
ExecutionTime = 2887.91 s  ClockTime = 2925 s

Courant Number mean: 0.001032529 max: 0.9725237
Interface Courant Number mean: 2.670179e-06 max: 0.0047715
deltaT = 8.677003e-07
Time = 0.000743161

PIMPLE: iteration 1
inverseDistance : detected 2 mesh regions
    zone:0 nCells:351564  voxels:(1000 1000 1) bb:(-0.65 -1.6625 -0.1) (0.65 1.5 0.1)
    zone:1 nCells:1920  voxels:(1000 1000 1) bb:(-0.65 -1.6625 -0.1) (0.65 1.5 0.1)
Overset analysis : nCells : 353484
    calculated   : 334104
    interpolated : 1152 (from local:0  mixed local/remote:0  remote:1152)
    hole         : 18228

Execution time for mesh.update() = 0.66 s
Mesh Courant Number mean: 8.902888e-05 max: 0.04645793
smoothSolver:  Solving for alpha.water, Initial residual = 1.472081e-06, Final residual = 6.75884e-12, No Iterations 4
Phase-1 volume fraction = 0.1046891  Min(alpha.water) = 0  Max(alpha.water) = 1
MULES: Correcting alpha.water
MULES: Correcting alpha.water
MULES: Correcting alpha.water
Phase-1 volume fraction = 0.1046891  Min(alpha.water) = 0  Max(alpha.water) = 1
DILUPBiCGStab:  Solving for p_rgh, Initial residual = 5.247255e-05, Final residual = 5.204671e-08, No Iterations 609
DILUPBiCGStab:  Solving for p_rgh, Initial residual = 6.021563e-06, Final residual = 5.679028e-09, No Iterations 301
DILUPBiCGStab:  Solving for p_rgh, Initial residual = 4.446728e-08, Final residual = 8.216263e-11, No Iterations 623
time step continuity errors : sum local = 1.914759e-13, global = 1.246023e-15, cumulative = -1.110859e-07
DILUPBiCGStab:  Solving for p_rgh, Initial residual = 2.410979e-06, Final residual = 1.049728e-09, No Iterations 698
DILUPBiCGStab:  Solving for p_rgh, Initial residual = 1.2034e-07, Final residual = 1.202023e-10, No Iterations 247
DILUPBiCGStab:  Solving for p_rgh, Initial residual = 1.174327e-09, Final residual = 8.488753e-11, No Iterations 121
time step continuity errors : sum local = 1.651922e-13, global = 1.524437e-13, cumulative = -1.110857e-07
DILUPBiCGStab:  Solving for p_rgh, Initial residual = 4.812385e-08, Final residual = 8.256948e-11, No Iterations 610
DILUPBiCGStab:  Solving for p_rgh, Initial residual = 1.158712e-09, Final residual = 9.991594e-11, No Iterations 39
DILUPBiCGStab:  Solving for p_rgh, Initial residual = 1.134995e-10, Final residual = 9.571833e-11, No Iterations 16
time step continuity errors : sum local = 1.432358e-13, global = -4.268393e-14, cumulative = -1.110858e-07
smoothSolver:  Solving for omega, Initial residual = 0.0002048808, Final residual = 1.451711e-09, No Iterations 6
smoothSolver:  Solving for k, Initial residual = 0.0004510808, Final residual = 1.402356e-09, No Iterations 6
PIMPLE: iteration 2
inverseDistance : detected 2 mesh regions
    zone:0 nCells:351564  voxels:(1000 1000 1) bb:(-0.65 -1.6625 -0.1) (0.65 1.5 0.1)
    zone:1 nCells:1920  voxels:(1000 1000 1) bb:(-0.65 -1.6625 -0.1) (0.65 1.5 0.1)
Overset analysis : nCells : 353484
    calculated   : 334104
    interpolated : 1152 (from local:0  mixed local/remote:0  remote:1152)
    hole         : 18228

Execution time for mesh.update() = 0.74 s
Mesh Courant Number mean: 8.902888e-05 max: 0.04645793
smoothSolver:  Solving for alpha.water, Initial residual = 1.075817e-06, Final residual = 9.815088e-11, No Iterations 3
Phase-1 volume fraction = 0.1046891  Min(alpha.water) = 0  Max(alpha.water) = 1
MULES: Correcting alpha.water
MULES: Correcting alpha.water
MULES: Correcting alpha.water
Phase-1 volume fraction = 0.1046891  Min(alpha.water) = 0  Max(alpha.water) = 1
DILUPBiCGStab:  Solving for p_rgh, Initial residual = 1.399634e-06, Final residual = 2.394857e-10, No Iterations 586
DILUPBiCGStab:  Solving for p_rgh, Initial residual = 5.113629e-08, Final residual = 9.919918e-11, No Iterations 392
DILUPBiCGStab:  Solving for p_rgh, Initial residual = 6.512051e-10, Final residual = 9.771781e-11, No Iterations 103
time step continuity errors : sum local = 1.864751e-13, global = -3.933282e-15, cumulative = -1.110858e-07
DILUPBiCGStab:  Solving for p_rgh, Initial residual = 1.746104e-08, Final residual = 8.760418e-11, No Iterations 373
DILUPBiCGStab:  Solving for p_rgh, Initial residual = 4.247267e-10, Final residual = 9.996006e-11, No Iterations 190
DILUPBiCGStab:  Solving for p_rgh, Initial residual = 1.467696e-10, Final residual = 9.930242e-11, No Iterations 39
time step continuity errors : sum local = 1.490476e-13, global = 7.496016e-14, cumulative = -1.110857e-07
DILUPBiCGStab:  Solving for p_rgh, Initial residual = 4.715789e-10, Final residual = 9.935361e-11, No Iterations 68
DILUPBiCGStab:  Solving for p_rgh, Initial residual = 1.081982e-10, Final residual = 8.680866e-11, No Iterations 58
DILUPBiCGStab:  Solving for p_rgh, Initial residual = 9.626572e-11, Final residual = 9.626572e-11, No Iterations 0
time step continuity errors : sum local = 1.879141e-13, global = 3.169995e-14, cumulative = -1.110857e-07
smoothSolver:  Solving for omega, Initial residual = 3.888924e-07, Final residual = 2.729728e-09, No Iterations 3
smoothSolver:  Solving for k, Initial residual = 5.864544e-07, Final residual = 7.317752e-09, No Iterations 1
ExecutionTime = 2894.24 s  ClockTime = 2932 s

Courant Number mean: 0.00105842 max: 0.9760937
Interface Courant Number mean: 2.760575e-06 max: 0.004952933
deltaT = 8.887172e-07
Time = 0.000744049

PIMPLE: iteration 1
inverseDistance : detected 2 mesh regions
    zone:0 nCells:351564  voxels:(1000 1000 1) bb:(-0.65 -1.6625 -0.1) (0.65 1.5 0.1)
    zone:1 nCells:1920  voxels:(1000 1000 1) bb:(-0.65 -1.6625 -0.1) (0.65 1.5 0.1)
Overset analysis : nCells : 353484
    calculated   : 334104
    interpolated : 1152 (from local:0  mixed local/remote:0  remote:1152)
    hole         : 18228

Execution time for mesh.update() = 0.68 s
Mesh Courant Number mean: 9.119325e-05 max: 0.04758736
smoothSolver:  Solving for alpha.water, Initial residual = 1.483531e-06, Final residual = 6.839868e-12, No Iterations 4
Phase-1 volume fraction = 0.1046892  Min(alpha.water) = 0  Max(alpha.water) = 1
MULES: Correcting alpha.water
MULES: Correcting alpha.water
MULES: Correcting alpha.water
Phase-1 volume fraction = 0.1046892  Min(alpha.water) = 0  Max(alpha.water) = 1
DILUPBiCGStab:  Solving for p_rgh, Initial residual = 4.123337e-05, Final residual = 1.628473e-09, No Iterations 832
DILUPBiCGStab:  Solving for p_rgh, Initial residual = 5.0434e-06, Final residual = 4.337708e-09, No Iterations 164
DILUPBiCGStab:  Solving for p_rgh, Initial residual = 2.47709e-08, Final residual = 7.291341e-11, No Iterations 476
time step continuity errors : sum local = 1.325777e-13, global = -9.819696e-15, cumulative = -1.110857e-07
DILUPBiCGStab:  Solving for p_rgh, Initial residual = 2.493307e-06, Final residual = 1.870871e-09, No Iterations 651
DILUPBiCGStab:  Solving for p_rgh, Initial residual = 1.182418e-07, Final residual = 8.576175e-11, No Iterations 453
DILUPBiCGStab:  Solving for p_rgh, Initial residual = 1.364944e-09, Final residual = 7.939826e-11, No Iterations 110
time step continuity errors : sum local = 8.919706e-14, global = 1.874775e-15, cumulative = -1.110857e-07
DILUPBiCGStab:  Solving for p_rgh, Initial residual = 5.006429e-08, Final residual = 3.29082e-11, No Iterations 550
DILUPBiCGStab:  Solving for p_rgh, Initial residual = 1.18303e-09, Final residual = 9.239976e-11, No Iterations 44
DILUPBiCGStab:  Solving for p_rgh, Initial residual = 1.03649e-10, Final residual = 9.725543e-11, No Iterations 1
time step continuity errors : sum local = 9.107246e-14, global = 5.365159e-14, cumulative = -1.110856e-07
smoothSolver:  Solving for omega, Initial residual = 0.0002115059, Final residual = 1.425146e-09, No Iterations 6
smoothSolver:  Solving for k, Initial residual = 0.0004646082, Final residual = 1.370206e-09, No Iterations 6
PIMPLE: iteration 2
inverseDistance : detected 2 mesh regions
    zone:0 nCells:351564  voxels:(1000 1000 1) bb:(-0.65 -1.6625 -0.1) (0.65 1.5 0.1)
    zone:1 nCells:1920  voxels:(1000 1000 1) bb:(-0.65 -1.6625 -0.1) (0.65 1.5 0.1)
Overset analysis : nCells : 353484
    calculated   : 334104
    interpolated : 1152 (from local:0  mixed local/remote:0  remote:1152)
    hole         : 18228

Execution time for mesh.update() = 0.7 s
Mesh Courant Number mean: 9.119325e-05 max: 0.04758736
smoothSolver:  Solving for alpha.water, Initial residual = 1.085515e-06, Final residual = 9.803904e-11, No Iterations 3
Phase-1 volume fraction = 0.1046892  Min(alpha.water) = 0  Max(alpha.water) = 1
MULES: Correcting alpha.water
MULES: Correcting alpha.water
MULES: Correcting alpha.water
Phase-1 volume fraction = 0.1046892  Min(alpha.water) = 0  Max(alpha.water) = 1
DILUPBiCGStab:  Solving for p_rgh, Initial residual = 1.57244e-06, Final residual = 4.996976e-10, No Iterations 530
DILUPBiCGStab:  Solving for p_rgh, Initial residual = 3.849394e-08, Final residual = 8.416487e-11, No Iterations 362
DILUPBiCGStab:  Solving for p_rgh, Initial residual = 7.366819e-10, Final residual = 9.648694e-11, No Iterations 75
time step continuity errors : sum local = 1.297873e-13, global = -1.822805e-14, cumulative = -1.110856e-07
DILUPBiCGStab:  Solving for p_rgh, Initial residual = 2.667463e-08, Final residual = 9.977422e-11, No Iterations 558
DILUPBiCGStab:  Solving for p_rgh, Initial residual = 4.936134e-10, Final residual = 9.401832e-11, No Iterations 96
DILUPBiCGStab:  Solving for p_rgh, Initial residual = 1.238454e-10, Final residual = 9.936788e-11, No Iterations 1
time step continuity errors : sum local = 1.240247e-13, global = 9.926793e-14, cumulative = -1.110855e-07
DILUPBiCGStab:  Solving for p_rgh, Initial residual = 5.415455e-10, Final residual = 9.939466e-11, No Iterations 50
DILUPBiCGStab:  Solving for p_rgh, Initial residual = 1.018909e-10, Final residual = 9.830653e-11, No Iterations 40
DILUPBiCGStab:  Solving for p_rgh, Initial residual = 1.032587e-10, Final residual = 9.944326e-11, No Iterations 13
time step continuity errors : sum local = 1.15825e-13, global = 7.442764e-14, cumulative = -1.110855e-07
smoothSolver:  Solving for omega, Initial residual = 4.413782e-07, Final residual = 2.764666e-09, No Iterations 3
smoothSolver:  Solving for k, Initial residual = 4.487601e-07, Final residual = 6.231812e-09, No Iterations 1
ExecutionTime = 2900.93 s  ClockTime = 2939 s

Courant Number mean: 0.001084121 max: 0.9820944
Interface Courant Number mean: 2.844228e-06 max: 0.005118266
deltaT = 9.04419e-07
Time = 0.000744954

PIMPLE: iteration 1
inverseDistance : detected 2 mesh regions
    zone:0 nCells:351564  voxels:(1000 1000 1) bb:(-0.65 -1.6625 -0.1) (0.65 1.5 0.1)
    zone:1 nCells:1920  voxels:(1000 1000 1) bb:(-0.65 -1.6625 -0.1) (0.65 1.5 0.1)
Overset analysis : nCells : 353484
    calculated   : 334104
    interpolated : 1152 (from local:0  mixed local/remote:0  remote:1152)
    hole         : 18228

Execution time for mesh.update() = 0.71 s
Mesh Courant Number mean: 9.281269e-05 max: 0.04843243
smoothSolver:  Solving for alpha.water, Initial residual = 1.492144e-06, Final residual = 6.85557e-12, No Iterations 4
Phase-1 volume fraction = 0.1046893  Min(alpha.water) = 0  Max(alpha.water) = 1
MULES: Correcting alpha.water
MULES: Correcting alpha.water
MULES: Correcting alpha.water
Phase-1 volume fraction = 0.1046893  Min(alpha.water) = 0  Max(alpha.water) = 1
DILUPBiCGStab:  Solving for p_rgh, Initial residual = 4.009631e-05, Final residual = 2.716746e-08, No Iterations 609
DILUPBiCGStab:  Solving for p_rgh, Initial residual = 4.070027e-06, Final residual = 3.824561e-09, No Iterations 404
DILUPBiCGStab:  Solving for p_rgh, Initial residual = 4.348012e-08, Final residual = 6.323501e-11, No Iterations 401
time step continuity errors : sum local = 8.991268e-14, global = 1.76878e-14, cumulative = -1.110854e-07
