/*---------------------------------------------------------------------------*\
| =========                 |                                                 |
| \\      /  F ield         | OpenFOAM: The Open Source CFD Toolbox           |
|  \\    /   O peration     | Version:  2412                                  |
|   \\  /    A nd           | Website:  www.openfoam.com                      |
|    \\/     M anipulation  |                                                 |
\*---------------------------------------------------------------------------*/
Build  : d394908-20241220 OPENFOAM=2412 version=v2412
Arch   : "LSB;label=32;scalar=64"
Exec   : refineMesh -dict system/refineMeshDict1 -overwrite
Date   : May 03 2025
Time   : 20:42:25
Host   : kucoastal00
PID    : 413236
I/O    : uncollated
Case   : /home/song/OpenFOAM/song-v2412/run/volcanicTsunamiGenerator2D/movingObject
nProcs : 1
trapFpe: Floating point exception trapping enabled (FOAM_SIGFPE).
fileModificationChecking : Monitoring run-time modified files using timeStampMaster (fileModificationSkew 5, maxFileModificationPolls 20)
allowSystemOperations : Allowing user-supplied system call operations

// * * * * * * * * * * * * * * * * * * * * * * * * * * * * * * * * * * * * * //
Create time

Create polyMesh for time = 0

Mesh edge statistics:
    x aligned :  number:39372	minLen:0.0125	maxLen:0.0125
    y aligned :  number:39552	minLen:0.01236979166	maxLen:0.01236979167
    z aligned :  number:19879	minLen:0.02	maxLen:0.02
    other     :  number:0	minLen:1e+15	maxLen:-1e+15

