/*---------------------------------------------------------------------------*\
| =========                 |                                                 |
| \\      /  F ield         | OpenFOAM: The Open Source CFD Toolbox           |
|  \\    /   O peration     | Version:  2412                                  |
|   \\  /    A nd           | Website:  www.openfoam.com                      |
|    \\/     M anipulation  |                                                 |
\*---------------------------------------------------------------------------*/
Build  : d394908-20241220 OPENFOAM=2412 version=v2412
Arch   : "LSB;label=32;scalar=64"
Exec   : topoSet -dict system/topoSetDict.2
Date   : May 03 2025
Time   : 20:42:26
Host   : kucoastal00
PID    : 413237
I/O    : uncollated
Case   : /home/song/OpenFOAM/song-v2412/run/volcanicTsunamiGenerator2D/movingObject
nProcs : 1
trapFpe: Floating point exception trapping enabled (FOAM_SIGFPE).
fileModificationChecking : Monitoring run-time modified files using timeStampMaster (fileModificationSkew 5, maxFileModificationPolls 20)
allowSystemOperations : Allowing user-supplied system call operations

// * * * * * * * * * * * * * * * * * * * * * * * * * * * * * * * * * * * * * //
Create time

Create polyMesh for time = 0

Reading topoSetDict.2

Time = 0
    mesh not changed.
Created cellSet a0
    Applying source boxToCell
    Adding cells with centre within boxes 1((-0.6 -20 -0.005) (0.6 40 0.005))
    cellSet a0 now size 18432

End

