/*---------------------------------------------------------------------------*\
| =========                 |                                                 |
| \\      /  F ield         | OpenFOAM: The Open Source CFD Toolbox           |
|  \\    /   O peration     | Version:  2406                                  |
|   \\  /    A nd           | Website:  www.openfoam.com                      |
|    \\/     M anipulation  |                                                 |
\*---------------------------------------------------------------------------*/
Build  : 630d60de3b-20240620 OPENFOAM=2406 version=v2406
Arch   : "LSB;label=32;scalar=64"
Exec   : overInterDyMFoam -parallel
Date   : Mar 19 2025
Time   : 20:55:35
Host   : Coastal-song
PID    : 28082
I/O    : uncollated
Case   : /home/song/OpenFOAM/song-v2406/run/volcanicTsunamiGenerator2D_1/background
nProcs : 32
Hosts  :
(
    (Coastal-song 32)
)
Pstream initialized with:
    floatTransfer      : false
    maxCommsSize       : 0
    nProcsSimpleSum    : 0
    nonBlockingExchange: 0 (tuning: 0)
    exchange algorithm : 0
    commsType          : nonBlocking
    polling iterations : 0
trapFpe: Floating point exception trapping enabled (FOAM_SIGFPE).
fileModificationChecking : Monitoring run-time modified files using timeStampMaster (fileModificationSkew 5, maxFileModificationPolls 20)
allowSystemOperations : Allowing user-supplied system call operations

// * * * * * * * * * * * * * * * * * * * * * * * * * * * * * * * * * * * * * //
Create time

Create mesh for time = 0

Selecting dynamicFvMesh dynamicOversetFvMesh
Selecting motion solver: multiSolidBodyMotionSolver
Applying motion to entire mesh
Selecting solid-body motion function tabulated6DoFMotion
Applying solid body motion tabulated6DoFMotion to 4608 points of cellZone movingZone

PIMPLE: no residual control data found. Calculations will employ 2 corrector loops

Reading field p_rgh

Reading field U

Reading/calculating face flux field phi

Creating cellMask field to block out hole cells

--> FOAM Warning : 
    From bool Foam::oversetPolyPatch::master() const
    in file oversetPolyPatch/oversetPolyPatch.C at line 145
    The master overset patch is not the first patch. Generally the first patch should be an overset patch to guarantee consistent operation.
Creating interpolatedCells field 

Reading transportProperties

Selecting incompressible transport model Newtonian
Selecting incompressible transport model Newtonian
Selecting turbulence model type RAS
Selecting RAS turbulence model kEpsilon
RAS
{
    RASModel        kEpsilon;
    turbulence      on;
    printCoeffs     on;
    Cmu             0.09;
    C1              1.44;
    C2              1.92;
    C3              0;
    sigmak          1;
    sigmaEps        1.3;
}


Reading g

Reading hRef
Calculating field g.h

No MRF models present

No finite volume options present
Reading/calculating face velocity Uf

Courant Number mean: 0 max: 0

Starting time loop

Courant Number mean: 0 max: 0
Interface Courant Number mean: 0 max: 0
deltaT = 0.0005882353
Time = 0.000588235

PIMPLE: iteration 1
inverseDistance : detected 2 mesh regions
    zone:0 nCells:190728  voxels:(300 300 1) bb:(-0.7 -1.7 -0.1) (0.7 1.1 0.1)
    zone:1 nCells:1728  voxels:(300 300 1) bb:(-0.7 -1.7 -0.1) (0.7 1.1 0.1)
Overset analysis : nCells : 192456
    calculated   : 172976
    interpolated : 1154 (from local:0  mixed local/remote:0  remote:1154)
    hole         : 18326

Execution time for mesh.update() = 0.38 s
Mesh Courant Number mean: 0.004911829 max: 2.839943
smoothSolver:  Solving for alpha.water, Initial residual = 6.522169e-17, Final residual = 6.522169e-17, No Iterations 0
Phase-1 volume fraction = 0.1023281  Min(alpha.water) = 0  Max(alpha.water) = 1
MULES: Correcting alpha.water
MULES: Correcting alpha.water
MULES: Correcting alpha.water
Phase-1 volume fraction = 0.1023281  Min(alpha.water) = 0  Max(alpha.water) = 1
DILUPBiCGStab:  Solving for p_rgh, Initial residual = 1, Final residual = 0.007338508, No Iterations 172
time step continuity errors : sum local = 0.02135707, global = -0.09020738, cumulative = -0.09020738
DILUPBiCGStab:  Solving for p_rgh, Initial residual = 4.578092e-05, Final residual = 3.874491e-07, No Iterations 645
time step continuity errors : sum local = 0.01864066, global = -0.07879873, cumulative = -0.1690061
DILUPBiCGStab:  Solving for p_rgh, Initial residual = 6.279413e-06, Final residual = 3.842674e-07, No Iterations 1000
time step continuity errors : sum local = 0.01865706, global = -0.07886772, cumulative = -0.2478738
smoothSolver:  Solving for epsilon, Initial residual = 0.4108696, Final residual = 4.789864e-09, No Iterations 12
smoothSolver:  Solving for k, Initial residual = 1, Final residual = 3.273533e-09, No Iterations 13
PIMPLE: iteration 2
smoothSolver:  Solving for alpha.water, Initial residual = 7.897749e-05, Final residual = 6.325908e-11, No Iterations 3
Phase-1 volume fraction = 0.1023286  Min(alpha.water) = 0  Max(alpha.water) = 1
MULES: Correcting alpha.water
MULES: Correcting alpha.water
MULES: Correcting alpha.water
Phase-1 volume fraction = 0.1023286  Min(alpha.water) = -1.31069e-31  Max(alpha.water) = 1
DILUPBiCGStab:  Solving for p_rgh, Initial residual = 7.834937e-05, Final residual = 7.223234e-07, No Iterations 191
time step continuity errors : sum local = 0.005203257, global = -0.04988587, cumulative = -0.2977597
DILUPBiCGStab:  Solving for p_rgh, Initial residual = 2.204163e-05, Final residual = 2.180464e-07, No Iterations 383
time step continuity errors : sum local = 0.005087679, global = -0.04873603, cumulative = -0.3464957
DILUPBiCGStab:  Solving for p_rgh, Initial residual = 1.069904e-05, Final residual = 1.351239e-09, No Iterations 1000
time step continuity errors : sum local = 0.005098091, global = -0.0488516, cumulative = -0.3953473
smoothSolver:  Solving for epsilon, Initial residual = 0.7159931, Final residual = 2.506806e-09, No Iterations 13
smoothSolver:  Solving for k, Initial residual = 0.6939174, Final residual = 2.655372e-09, No Iterations 13
ExecutionTime = 3.52 s  ClockTime = 4 s

Courant Number mean: 0.0893106 max: 111.9216
Interface Courant Number mean: 2.940657e-05 max: 0.2321864
deltaT = 5.255033e-06
Time = 0.00059349

PIMPLE: iteration 1
inverseDistance : detected 2 mesh regions
    zone:0 nCells:190728  voxels:(300 300 1) bb:(-0.7 -1.7 -0.1) (0.7 1.1 0.1)
    zone:1 nCells:1728  voxels:(300 300 1) bb:(-0.7 -1.7 -0.1) (0.7 1.1 0.1)
Overset analysis : nCells : 192456
    calculated   : 172976
    interpolated : 1154 (from local:0  mixed local/remote:0  remote:1154)
    hole         : 18326

Execution time for mesh.update() = 0.37 s
Mesh Courant Number mean: 4.413291e-05 max: 0.02551696
smoothSolver:  Solving for alpha.water, Initial residual = 7.138536e-07, Final residual = 1.229346e-12, No Iterations 1
Phase-1 volume fraction = 0.1023286  Min(alpha.water) = -7.498611e-55  Max(alpha.water) = 1
MULES: Correcting alpha.water
MULES: Correcting alpha.water
MULES: Correcting alpha.water
Phase-1 volume fraction = 0.1023286  Min(alpha.water) = -7.498611e-55  Max(alpha.water) = 1
DILUPBiCGStab:  Solving for p_rgh, Initial residual = 0.008630406, Final residual = 7.909508e-05, No Iterations 40
time step continuity errors : sum local = 1.532599e-06, global = -6.519406e-06, cumulative = -0.3953538
DILUPBiCGStab:  Solving for p_rgh, Initial residual = 0.0001463594, Final residual = 1.105252e-06, No Iterations 500
time step continuity errors : sum local = 1.436047e-06, global = -6.096986e-06, cumulative = -0.3953599
DILUPBiCGStab:  Solving for p_rgh:  solution singularity
time step continuity errors : sum local = 1.817157e-06, global = -7.607668e-06, cumulative = -0.3953675
smoothSolver:  Solving for epsilon, Initial residual = 0.03388332, Final residual = 4.97768e-09, No Iterations 7
smoothSolver:  Solving for k, Initial residual = 0.01944989, Final residual = 4.252672e-09, No Iterations 7
PIMPLE: iteration 2
smoothSolver:  Solving for alpha.water, Initial residual = 1.789174e-07, Final residual = 3.498944e-13, No Iterations 1
Phase-1 volume fraction = 0.1023286  Min(alpha.water) = -7.533417e-55  Max(alpha.water) = 1
MULES: Correcting alpha.water
MULES: Correcting alpha.water
MULES: Correcting alpha.water
Phase-1 volume fraction = 0.1023286  Min(alpha.water) = -7.533417e-55  Max(alpha.water) = 1
DILUPBiCGStab:  Solving for p_rgh, Initial residual = 0.0002166176, Final residual = 1.993891e-06, No Iterations 417
time step continuity errors : sum local = 1.410663e-06, global = -5.97606e-06, cumulative = -0.3953735
DILUPBiCGStab:  Solving for p_rgh, Initial residual = 6.376354e-05, Final residual = 4.199734e-07, No Iterations 651
time step continuity errors : sum local = 1.415462e-06, global = -5.999541e-06, cumulative = -0.3953795
DILUPBiCGStab:  Solving for p_rgh, Initial residual = 7.576711e-06, Final residual = 9.993638e-11, No Iterations 531
time step continuity errors : sum local = 1.414921e-06, global = -5.997505e-06, cumulative = -0.3953855
smoothSolver:  Solving for epsilon, Initial residual = 0.005527448, Final residual = 2.964452e-09, No Iterations 6
smoothSolver:  Solving for k, Initial residual = 0.002590985, Final residual = 9.028758e-09, No Iterations 5
ExecutionTime = 6.88 s  ClockTime = 7 s

Courant Number mean: 0.0008046906 max: 1.013478
Interface Courant Number mean: 2.640121e-07 max: 0.002094717
deltaT = 5.185507e-06
Time = 0.000598676

PIMPLE: iteration 1
inverseDistance : detected 2 mesh regions
    zone:0 nCells:190728  voxels:(300 300 1) bb:(-0.7 -1.7 -0.1) (0.7 1.1 0.1)
    zone:1 nCells:1728  voxels:(300 300 1) bb:(-0.7 -1.7 -0.1) (0.7 1.1 0.1)
Overset analysis : nCells : 192456
    calculated   : 172976
    interpolated : 1154 (from local:0  mixed local/remote:0  remote:1154)
    hole         : 18326

Execution time for mesh.update() = 0.35 s
Mesh Courant Number mean: 4.355334e-05 max: 0.02518186
smoothSolver:  Solving for alpha.water, Initial residual = 6.992161e-07, Final residual = 1.10711e-12, No Iterations 1
Phase-1 volume fraction = 0.1023286  Min(alpha.water) = -6.993381e-55  Max(alpha.water) = 1
MULES: Correcting alpha.water
MULES: Correcting alpha.water
MULES: Correcting alpha.water
Phase-1 volume fraction = 0.1023286  Min(alpha.water) = -6.993381e-55  Max(alpha.water) = 1
DILUPBiCGStab:  Solving for p_rgh, Initial residual = 0.003654839, Final residual = 3.646662e-05, No Iterations 172
time step continuity errors : sum local = 2.806374e-06, global = 1.260508e-05, cumulative = -0.3953729
DILUPBiCGStab:  Solving for p_rgh, Initial residual = 5.243067e-05, Final residual = 4.773486e-07, No Iterations 413
time step continuity errors : sum local = 2.843371e-06, global = 1.282374e-05, cumulative = -0.3953601
DILUPBiCGStab:  Solving for p_rgh:  solution singularity
time step continuity errors : sum local = 2.845198e-06, global = 1.283183e-05, cumulative = -0.3953473
smoothSolver:  Solving for epsilon, Initial residual = 0.02523989, Final residual = 4.186348e-09, No Iterations 7
smoothSolver:  Solving for k, Initial residual = 0.01893055, Final residual = 3.739804e-09, No Iterations 7
PIMPLE: iteration 2
smoothSolver:  Solving for alpha.water, Initial residual = 1.858781e-07, Final residual = 3.229006e-13, No Iterations 1
Phase-1 volume fraction = 0.1023286  Min(alpha.water) = -7.064372e-55  Max(alpha.water) = 1
MULES: Correcting alpha.water
MULES: Correcting alpha.water
MULES: Correcting alpha.water
Phase-1 volume fraction = 0.1023286  Min(alpha.water) = -7.064372e-55  Max(alpha.water) = 1
DILUPBiCGStab:  Solving for p_rgh, Initial residual = 8.012506e-06, Final residual = 8.010982e-08, No Iterations 140
time step continuity errors : sum local = 2.861019e-06, global = 1.290279e-05, cumulative = -0.3953344
DILUPBiCGStab:  Solving for p_rgh:  solution singularity
time step continuity errors : sum local = 2.861179e-06, global = 1.290378e-05, cumulative = -0.3953215
DILUPBiCGStab:  Solving for p_rgh, Initial residual = 5.503621e-08, Final residual = 9.697965e-11, No Iterations 545
time step continuity errors : sum local = 2.861149e-06, global = 1.290366e-05, cumulative = -0.3953085
smoothSolver:  Solving for epsilon, Initial residual = 0.005344974, Final residual = 2.782421e-09, No Iterations 6
smoothSolver:  Solving for k, Initial residual = 0.002172832, Final residual = 7.375662e-09, No Iterations 5
ExecutionTime = 9.55 s  ClockTime = 10 s

Courant Number mean: 0.0007826341 max: 0.9865216
Interface Courant Number mean: 2.538126e-07 max: 0.002019817
deltaT = 5.255072e-06
Time = 0.000603931

PIMPLE: iteration 1
inverseDistance : detected 2 mesh regions
    zone:0 nCells:190728  voxels:(300 300 1) bb:(-0.7 -1.7 -0.1) (0.7 1.1 0.1)
    zone:1 nCells:1728  voxels:(300 300 1) bb:(-0.7 -1.7 -0.1) (0.7 1.1 0.1)
Overset analysis : nCells : 192456
    calculated   : 172976
    interpolated : 1154 (from local:0  mixed local/remote:0  remote:1154)
    hole         : 18326

Execution time for mesh.update() = 0.44 s
Mesh Courant Number mean: 4.414202e-05 max: 0.02552222
smoothSolver:  Solving for alpha.water, Initial residual = 6.905531e-07, Final residual = 1.065769e-12, No Iterations 1
Phase-1 volume fraction = 0.1023286  Min(alpha.water) = -6.536846e-55  Max(alpha.water) = 1
MULES: Correcting alpha.water
MULES: Correcting alpha.water
MULES: Correcting alpha.water
Phase-1 volume fraction = 0.1023286  Min(alpha.water) = -6.536846e-55  Max(alpha.water) = 1
DILUPBiCGStab:  Solving for p_rgh, Initial residual = 0.001043361, Final residual = 9.719521e-06, No Iterations 139
time step continuity errors : sum local = 2.257947e-06, global = 1.016051e-05, cumulative = -0.3952984
DILUPBiCGStab:  Solving for p_rgh, Initial residual = 2.674536e-05, Final residual = 2.60013e-07, No Iterations 241
time step continuity errors : sum local = 2.290441e-06, global = 1.032518e-05, cumulative = -0.3952881
DILUPBiCGStab:  Solving for p_rgh, Initial residual = 2.158839e-06, Final residual = 1.831591e-07, No Iterations 1000
time step continuity errors : sum local = 2.290529e-06, global = 1.032591e-05, cumulative = -0.3952777
smoothSolver:  Solving for epsilon, Initial residual = 0.02722816, Final residual = 3.767029e-09, No Iterations 7
smoothSolver:  Solving for k, Initial residual = 0.01884502, Final residual = 3.378942e-09, No Iterations 7
PIMPLE: iteration 2
smoothSolver:  Solving for alpha.water, Initial residual = 1.801848e-07, Final residual = 3.147651e-13, No Iterations 1
Phase-1 volume fraction = 0.1023286  Min(alpha.water) = -6.578152e-55  Max(alpha.water) = 1
MULES: Correcting alpha.water
MULES: Correcting alpha.water
MULES: Correcting alpha.water
Phase-1 volume fraction = 0.1023286  Min(alpha.water) = -6.578152e-55  Max(alpha.water) = 1
DILUPBiCGStab:  Solving for p_rgh, Initial residual = 6.220622e-06, Final residual = 5.498737e-08, No Iterations 657
time step continuity errors : sum local = 2.300049e-06, global = 1.036784e-05, cumulative = -0.3952674
DILUPBiCGStab:  Solving for p_rgh:  solution singularity
time step continuity errors : sum local = 2.300413e-06, global = 1.036944e-05, cumulative = -0.395257
DILUPBiCGStab:  Solving for p_rgh, Initial residual = 1.54375e-07, Final residual = 6.037913e-11, No Iterations 426
time step continuity errors : sum local = 2.300138e-06, global = 1.036841e-05, cumulative = -0.3952466
smoothSolver:  Solving for epsilon, Initial residual = 0.005210293, Final residual = 2.562775e-09, No Iterations 6
smoothSolver:  Solving for k, Initial residual = 0.001898873, Final residual = 6.103256e-09, No Iterations 5
ExecutionTime = 12.97 s  ClockTime = 13 s

Courant Number mean: 0.0007843216 max: 0.9863619
Interface Courant Number mean: 2.525618e-07 max: 0.002015704
deltaT = 5.32657e-06
Time = 0.000609257

PIMPLE: iteration 1
inverseDistance : detected 2 mesh regions
    zone:0 nCells:190728  voxels:(300 300 1) bb:(-0.7 -1.7 -0.1) (0.7 1.1 0.1)
    zone:1 nCells:1728  voxels:(300 300 1) bb:(-0.7 -1.7 -0.1) (0.7 1.1 0.1)
Overset analysis : nCells : 192456
    calculated   : 172976
    interpolated : 1154 (from local:0  mixed local/remote:0  remote:1154)
    hole         : 18326

Execution time for mesh.update() = 0.37 s
Mesh Courant Number mean: 4.47471e-05 max: 0.02587207
smoothSolver:  Solving for alpha.water, Initial residual = 6.871738e-07, Final residual = 1.04629e-12, No Iterations 1
Phase-1 volume fraction = 0.1023286  Min(alpha.water) = -6.031911e-55  Max(alpha.water) = 1
MULES: Correcting alpha.water
MULES: Correcting alpha.water
MULES: Correcting alpha.water
Phase-1 volume fraction = 0.1023286  Min(alpha.water) = -6.031911e-55  Max(alpha.water) = 1
DILUPBiCGStab:  Solving for p_rgh, Initial residual = 0.0008205696, Final residual = 7.58313e-06, No Iterations 112
time step continuity errors : sum local = 1.683452e-06, global = 7.579401e-06, cumulative = -0.3952391
DILUPBiCGStab:  Solving for p_rgh, Initial residual = 2.465065e-05, Final residual = 2.436644e-07, No Iterations 567
time step continuity errors : sum local = 1.650055e-06, global = 7.441439e-06, cumulative = -0.3952316
DILUPBiCGStab:  Solving for p_rgh, Initial residual = 2.142806e-06, Final residual = 7.30769e-11, No Iterations 863
time step continuity errors : sum local = 1.649996e-06, global = 7.441523e-06, cumulative = -0.3952242
smoothSolver:  Solving for epsilon, Initial residual = 0.02813208, Final residual = 3.4355e-09, No Iterations 7
smoothSolver:  Solving for k, Initial residual = 0.01821638, Final residual = 3.121976e-09, No Iterations 7
PIMPLE: iteration 2
smoothSolver:  Solving for alpha.water, Initial residual = 1.777552e-07, Final residual = 3.170257e-13, No Iterations 1
Phase-1 volume fraction = 0.1023286  Min(alpha.water) = -6.051249e-55  Max(alpha.water) = 1
MULES: Correcting alpha.water
MULES: Correcting alpha.water
MULES: Correcting alpha.water
Phase-1 volume fraction = 0.1023286  Min(alpha.water) = -6.051249e-55  Max(alpha.water) = 1
DILUPBiCGStab:  Solving for p_rgh, Initial residual = 8.918199e-06, Final residual = 6.543215e-08, No Iterations 151
time step continuity errors : sum local = 1.660501e-06, global = 7.48827e-06, cumulative = -0.3952167
DILUPBiCGStab:  Solving for p_rgh, Initial residual = 3.09275e-07, Final residual = 2.02027e-09, No Iterations 721
time step continuity errors : sum local = 1.66068e-06, global = 7.489182e-06, cumulative = -0.3952092
DILUPBiCGStab:  Solving for p_rgh:  solution singularity
time step continuity errors : sum local = 1.66068e-06, global = 7.489186e-06, cumulative = -0.3952017
smoothSolver:  Solving for epsilon, Initial residual = 0.004795743, Final residual = 2.329789e-09, No Iterations 6
smoothSolver:  Solving for k, Initial residual = 0.001569976, Final residual = 5.308517e-09, No Iterations 5
ExecutionTime = 14.9 s  ClockTime = 15 s

Courant Number mean: 0.0007888768 max: 0.9885214
Interface Courant Number mean: 2.529128e-07 max: 0.002024084
deltaT = 5.387689e-06
Time = 0.000614645

PIMPLE: iteration 1
inverseDistance : detected 2 mesh regions
    zone:0 nCells:190728  voxels:(300 300 1) bb:(-0.7 -1.7 -0.1) (0.7 1.1 0.1)
    zone:1 nCells:1728  voxels:(300 300 1) bb:(-0.7 -1.7 -0.1) (0.7 1.1 0.1)
Overset analysis : nCells : 192456
    calculated   : 172976
    interpolated : 1154 (from local:0  mixed local/remote:0  remote:1154)
    hole         : 18326

Execution time for mesh.update() = 0.35 s
Mesh Courant Number mean: 4.526516e-05 max: 0.02617161
smoothSolver:  Solving for alpha.water, Initial residual = 6.864574e-07, Final residual = 1.037928e-12, No Iterations 1
Phase-1 volume fraction = 0.1023286  Min(alpha.water) = -5.469529e-55  Max(alpha.water) = 1
MULES: Correcting alpha.water
MULES: Correcting alpha.water
MULES: Correcting alpha.water
Phase-1 volume fraction = 0.1023286  Min(alpha.water) = -5.469529e-55  Max(alpha.water) = 1
DILUPBiCGStab:  Solving for p_rgh, Initial residual = 0.0007950522, Final residual = 7.413665e-06, No Iterations 114
time step continuity errors : sum local = 1.239634e-06, global = 5.588674e-06, cumulative = -0.3951961
DILUPBiCGStab:  Solving for p_rgh, Initial residual = 2.380418e-05, Final residual = 2.217312e-07, No Iterations 643
time step continuity errors : sum local = 1.20626e-06, global = 5.445247e-06, cumulative = -0.3951907
DILUPBiCGStab:  Solving for p_rgh, Initial residual = 2.17843e-06, Final residual = 9.520158e-10, No Iterations 1000
time step continuity errors : sum local = 1.206273e-06, global = 5.445613e-06, cumulative = -0.3951852
smoothSolver:  Solving for epsilon, Initial residual = 0.02847642, Final residual = 3.155667e-09, No Iterations 7
smoothSolver:  Solving for k, Initial residual = 0.01749405, Final residual = 2.922639e-09, No Iterations 7
PIMPLE: iteration 2
smoothSolver:  Solving for alpha.water, Initial residual = 1.774445e-07, Final residual = 3.22793e-13, No Iterations 1
Phase-1 volume fraction = 0.1023286  Min(alpha.water) = -5.476321e-55  Max(alpha.water) = 1
MULES: Correcting alpha.water
MULES: Correcting alpha.water
MULES: Correcting alpha.water
Phase-1 volume fraction = 0.1023286  Min(alpha.water) = -5.476321e-55  Max(alpha.water) = 1
DILUPBiCGStab:  Solving for p_rgh, Initial residual = 1.022342e-05, Final residual = 8.501548e-08, No Iterations 132
time step continuity errors : sum local = 1.215932e-06, global = 5.488776e-06, cumulative = -0.3951797
DILUPBiCGStab:  Solving for p_rgh, Initial residual = 3.357287e-07, Final residual = 3.306762e-09, No Iterations 364
time step continuity errors : sum local = 1.216036e-06, global = 5.48934e-06, cumulative = -0.3951742
DILUPBiCGStab:  Solving for p_rgh, Initial residual = 6.384492e-08, Final residual = 1.665451e-09, No Iterations 1000
time step continuity errors : sum local = 1.216037e-06, global = 5.489348e-06, cumulative = -0.3951688
smoothSolver:  Solving for epsilon, Initial residual = 0.004395173, Final residual = 2.082587e-09, No Iterations 6
smoothSolver:  Solving for k, Initial residual = 0.001323567, Final residual = 4.680328e-09, No Iterations 5
ExecutionTime = 16.85 s  ClockTime = 17 s

Courant Number mean: 0.0007936006 max: 0.9904866
Interface Courant Number mean: 2.537254e-07 max: 0.002035601
deltaT = 5.440785e-06
Time = 0.000620086

PIMPLE: iteration 1
inverseDistance : detected 2 mesh regions
    zone:0 nCells:190728  voxels:(300 300 1) bb:(-0.7 -1.7 -0.1) (0.7 1.1 0.1)
    zone:1 nCells:1728  voxels:(300 300 1) bb:(-0.7 -1.7 -0.1) (0.7 1.1 0.1)
Overset analysis : nCells : 192456
    calculated   : 172976
    interpolated : 1154 (from local:0  mixed local/remote:0  remote:1154)
    hole         : 18326

Execution time for mesh.update() = 0.43 s
Mesh Courant Number mean: 4.571597e-05 max: 0.02643226
smoothSolver:  Solving for alpha.water, Initial residual = 6.87307e-07, Final residual = 1.036546e-12, No Iterations 1
Phase-1 volume fraction = 0.1023286  Min(alpha.water) = -4.849746e-55  Max(alpha.water) = 1
MULES: Correcting alpha.water
MULES: Correcting alpha.water
MULES: Correcting alpha.water
Phase-1 volume fraction = 0.1023286  Min(alpha.water) = -4.849746e-55  Max(alpha.water) = 1
DILUPBiCGStab:  Solving for p_rgh, Initial residual = 0.0008094986, Final residual = 7.942576e-06, No Iterations 104
time step continuity errors : sum local = 9.385987e-07, global = 4.238532e-06, cumulative = -0.3951645
DILUPBiCGStab:  Solving for p_rgh, Initial residual = 2.38253e-05, Final residual = 1.915463e-07, No Iterations 573
time step continuity errors : sum local = 9.059154e-07, global = 4.096194e-06, cumulative = -0.3951604
DILUPBiCGStab:  Solving for p_rgh, Initial residual = 2.040893e-06, Final residual = 2.216436e-08, No Iterations 1000
time step continuity errors : sum local = 9.062704e-07, global = 4.097966e-06, cumulative = -0.3951563
smoothSolver:  Solving for epsilon, Initial residual = 0.02849721, Final residual = 2.912563e-09, No Iterations 7
smoothSolver:  Solving for k, Initial residual = 0.01681165, Final residual = 2.760185e-09, No Iterations 7
PIMPLE: iteration 2
smoothSolver:  Solving for alpha.water, Initial residual = 1.782259e-07, Final residual = 3.30738e-13, No Iterations 1
Phase-1 volume fraction = 0.1023286  Min(alpha.water) = -4.848669e-55  Max(alpha.water) = 1
MULES: Correcting alpha.water
MULES: Correcting alpha.water
MULES: Correcting alpha.water
Phase-1 volume fraction = 0.1023286  Min(alpha.water) = -4.848669e-55  Max(alpha.water) = 1
DILUPBiCGStab:  Solving for p_rgh, Initial residual = 1.074621e-05, Final residual = 9.719766e-08, No Iterations 145
time step continuity errors : sum local = 9.14064e-07, global = 4.132815e-06, cumulative = -0.3951522
DILUPBiCGStab:  Solving for p_rgh, Initial residual = 3.573054e-07, Final residual = 3.423769e-09, No Iterations 558
time step continuity errors : sum local = 9.143052e-07, global = 4.133978e-06, cumulative = -0.3951481
DILUPBiCGStab:  Solving for p_rgh, Initial residual = 7.061954e-08, Final residual = 1.293483e-09, No Iterations 1000
time step continuity errors : sum local = 9.142991e-07, global = 4.133952e-06, cumulative = -0.3951439
smoothSolver:  Solving for epsilon, Initial residual = 0.004016467, Final residual = 9.207162e-09, No Iterations 5
smoothSolver:  Solving for k, Initial residual = 0.001129059, Final residual = 4.172686e-09, No Iterations 5
ExecutionTime = 19.09 s  ClockTime = 19 s

Courant Number mean: 0.0007982696 max: 0.9923532
Interface Courant Number mean: 2.547754e-07 max: 0.00204847
deltaT = 5.482124e-06
Time = 0.000625568

PIMPLE: iteration 1
inverseDistance : detected 2 mesh regions
    zone:0 nCells:190728  voxels:(300 300 1) bb:(-0.7 -1.7 -0.1) (0.7 1.1 0.1)
    zone:1 nCells:1728  voxels:(300 300 1) bb:(-0.7 -1.7 -0.1) (0.7 1.1 0.1)
Overset analysis : nCells : 192456
    calculated   : 172976
    interpolated : 1154 (from local:0  mixed local/remote:0  remote:1154)
    hole         : 18326

Execution time for mesh.update() = 0.37 s
Mesh Courant Number mean: 4.60681e-05 max: 0.02663585
smoothSolver:  Solving for alpha.water, Initial residual = 6.883586e-07, Final residual = 1.037465e-12, No Iterations 1
Phase-1 volume fraction = 0.1023286  Min(alpha.water) = -4.176908e-55  Max(alpha.water) = 1
MULES: Correcting alpha.water
MULES: Correcting alpha.water
MULES: Correcting alpha.water
Phase-1 volume fraction = 0.1023286  Min(alpha.water) = -4.176908e-55  Max(alpha.water) = 1
DILUPBiCGStab:  Solving for p_rgh, Initial residual = 0.0008245535, Final residual = 3.511083e-06, No Iterations 114
time step continuity errors : sum local = 7.037377e-07, global = 3.187111e-06, cumulative = -0.3951407
DILUPBiCGStab:  Solving for p_rgh:  solution singularity
time step continuity errors : sum local = 6.93262e-07, global = 3.14204e-06, cumulative = -0.3951376
DILUPBiCGStab:  Solving for p_rgh, Initial residual = 2.164722e-06, Final residual = 2.602531e-09, No Iterations 1000
time step continuity errors : sum local = 6.932552e-07, global = 3.142477e-06, cumulative = -0.3951344
smoothSolver:  Solving for epsilon, Initial residual = 0.02820652, Final residual = 2.694892e-09, No Iterations 7
smoothSolver:  Solving for k, Initial residual = 0.016132, Final residual = 2.619844e-09, No Iterations 7
PIMPLE: iteration 2
smoothSolver:  Solving for alpha.water, Initial residual = 1.794764e-07, Final residual = 3.39383e-13, No Iterations 1
Phase-1 volume fraction = 0.1023286  Min(alpha.water) = -4.170713e-55  Max(alpha.water) = 1
MULES: Correcting alpha.water
MULES: Correcting alpha.water
MULES: Correcting alpha.water
Phase-1 volume fraction = 0.1023286  Min(alpha.water) = -4.170713e-55  Max(alpha.water) = 1
DILUPBiCGStab:  Solving for p_rgh, Initial residual = 1.202034e-05, Final residual = 1.018332e-07, No Iterations 142
time step continuity errors : sum local = 6.996506e-07, global = 3.171029e-06, cumulative = -0.3951313
DILUPBiCGStab:  Solving for p_rgh, Initial residual = 4.419664e-07, Final residual = 1.932736e-08, No Iterations 1000
time step continuity errors : sum local = 6.998589e-07, global = 3.172017e-06, cumulative = -0.3951281
DILUPBiCGStab:  Solving for p_rgh, Initial residual = 8.560029e-08, Final residual = 4.574958e-10, No Iterations 1000
time step continuity errors : sum local = 6.998523e-07, global = 3.172004e-06, cumulative = -0.3951249
smoothSolver:  Solving for epsilon, Initial residual = 0.003645679, Final residual = 8.162302e-09, No Iterations 5
smoothSolver:  Solving for k, Initial residual = 0.0009646447, Final residual = 3.747954e-09, No Iterations 5
ExecutionTime = 21.99 s  ClockTime = 22 s

Courant Number mean: 0.0008019989 max: 0.9931831
Interface Courant Number mean: 2.556858e-07 max: 0.002059731
deltaT = 5.520867e-06
Time = 0.000631089

PIMPLE: iteration 1
inverseDistance : detected 2 mesh regions
    zone:0 nCells:190728  voxels:(300 300 1) bb:(-0.7 -1.7 -0.1) (0.7 1.1 0.1)
    zone:1 nCells:1728  voxels:(300 300 1) bb:(-0.7 -1.7 -0.1) (0.7 1.1 0.1)
Overset analysis : nCells : 192456
    calculated   : 172976
    interpolated : 1154 (from local:0  mixed local/remote:0  remote:1154)
    hole         : 18326

Execution time for mesh.update() = 0.35 s
Mesh Courant Number mean: 4.639852e-05 max: 0.0268269
smoothSolver:  Solving for alpha.water, Initial residual = 6.902182e-07, Final residual = 1.042243e-12, No Iterations 1
Phase-1 volume fraction = 0.1023287  Min(alpha.water) = -3.448247e-55  Max(alpha.water) = 1
MULES: Correcting alpha.water
MULES: Correcting alpha.water
MULES: Correcting alpha.water
Phase-1 volume fraction = 0.1023287  Min(alpha.water) = -3.448247e-55  Max(alpha.water) = 1
DILUPBiCGStab:  Solving for p_rgh, Initial residual = 0.0008512613, Final residual = 8.022071e-06, No Iterations 121
time step continuity errors : sum local = 5.442045e-07, global = 2.472236e-06, cumulative = -0.3951225
DILUPBiCGStab:  Solving for p_rgh, Initial residual = 2.494761e-05, Final residual = 2.159599e-07, No Iterations 622
time step continuity errors : sum local = 5.356474e-07, global = 2.436389e-06, cumulative = -0.39512
DILUPBiCGStab:  Solving for p_rgh, Initial residual = 1.974853e-06, Final residual = 3.095549e-08, No Iterations 1000
time step continuity errors : sum local = 5.357126e-07, global = 2.43678e-06, cumulative = -0.3951176
smoothSolver:  Solving for epsilon, Initial residual = 0.02769556, Final residual = 2.502349e-09, No Iterations 7
smoothSolver:  Solving for k, Initial residual = 0.01547021, Final residual = 2.498599e-09, No Iterations 7
PIMPLE: iteration 2
smoothSolver:  Solving for alpha.water, Initial residual = 1.811943e-07, Final residual = 3.493154e-13, No Iterations 1
Phase-1 volume fraction = 0.1023287  Min(alpha.water) = -3.438635e-55  Max(alpha.water) = 1
MULES: Correcting alpha.water
MULES: Correcting alpha.water
MULES: Correcting alpha.water
Phase-1 volume fraction = 0.1023287  Min(alpha.water) = -3.438635e-55  Max(alpha.water) = 1
DILUPBiCGStab:  Solving for p_rgh, Initial residual = 1.2762e-05, Final residual = 1.051193e-07, No Iterations 131
time step continuity errors : sum local = 5.410826e-07, global = 2.460739e-06, cumulative = -0.3951151
DILUPBiCGStab:  Solving for p_rgh, Initial residual = 4.246124e-07, Final residual = 4.216916e-09, No Iterations 809
time step continuity errors : sum local = 5.412405e-07, global = 2.461505e-06, cumulative = -0.3951127
DILUPBiCGStab:  Solving for p_rgh, Initial residual = 9.214527e-08, Final residual = 3.502352e-10, No Iterations 1000
time step continuity errors : sum local = 5.412385e-07, global = 2.461497e-06, cumulative = -0.3951102
smoothSolver:  Solving for epsilon, Initial residual = 0.003299042, Final residual = 7.276558e-09, No Iterations 5
smoothSolver:  Solving for k, Initial residual = 0.0008264647, Final residual = 3.386668e-09, No Iterations 5
ExecutionTime = 24.66 s  ClockTime = 25 s

Courant Number mean: 0.0008059184 max: 0.9944477
Interface Courant Number mean: 2.567591e-07 max: 0.00207188
deltaT = 5.550303e-06
Time = 0.000636639

PIMPLE: iteration 1
inverseDistance : detected 2 mesh regions
    zone:0 nCells:190728  voxels:(300 300 1) bb:(-0.7 -1.7 -0.1) (0.7 1.1 0.1)
    zone:1 nCells:1728  voxels:(300 300 1) bb:(-0.7 -1.7 -0.1) (0.7 1.1 0.1)
Overset analysis : nCells : 192456
    calculated   : 172976
    interpolated : 1154 (from local:0  mixed local/remote:0  remote:1154)
    hole         : 18326

Execution time for mesh.update() = 0.36 s
Mesh Courant Number mean: 4.665082e-05 max: 0.02697277
smoothSolver:  Solving for alpha.water, Initial residual = 6.917023e-07, Final residual = 1.047069e-12, No Iterations 1
Phase-1 volume fraction = 0.1023287  Min(alpha.water) = -2.669235e-55  Max(alpha.water) = 1
MULES: Correcting alpha.water
MULES: Correcting alpha.water
MULES: Correcting alpha.water
Phase-1 volume fraction = 0.1023287  Min(alpha.water) = -2.669235e-55  Max(alpha.water) = 1
DILUPBiCGStab:  Solving for p_rgh, Initial residual = 0.0008862327, Final residual = 7.684151e-06, No Iterations 119
time step continuity errors : sum local = 4.247274e-07, global = 1.938301e-06, cumulative = -0.3951083
DILUPBiCGStab:  Solving for p_rgh, Initial residual = 2.523861e-05, Final residual = 2.441506e-07, No Iterations 647
time step continuity errors : sum local = 4.139749e-07, global = 1.892425e-06, cumulative = -0.3951064
DILUPBiCGStab:  Solving for p_rgh, Initial residual = 2.079873e-06, Final residual = 2.214063e-08, No Iterations 1000
time step continuity errors : sum local = 4.141161e-07, global = 1.893156e-06, cumulative = -0.3951045
smoothSolver:  Solving for epsilon, Initial residual = 0.02698479, Final residual = 2.328458e-09, No Iterations 7
smoothSolver:  Solving for k, Initial residual = 0.01480537, Final residual = 2.388877e-09, No Iterations 7
PIMPLE: iteration 2
smoothSolver:  Solving for alpha.water, Initial residual = 1.828478e-07, Final residual = 3.592142e-13, No Iterations 1
Phase-1 volume fraction = 0.1023287  Min(alpha.water) = -2.657387e-55  Max(alpha.water) = 1
MULES: Correcting alpha.water
MULES: Correcting alpha.water
MULES: Correcting alpha.water
Phase-1 volume fraction = 0.1023287  Min(alpha.water) = -2.657387e-55  Max(alpha.water) = 1
DILUPBiCGStab:  Solving for p_rgh, Initial residual = 1.404797e-05, Final residual = 1.239531e-07, No Iterations 128
time step continuity errors : sum local = 4.186288e-07, global = 1.913255e-06, cumulative = -0.3951026
DILUPBiCGStab:  Solving for p_rgh, Initial residual = 4.509779e-07, Final residual = 4.246983e-09, No Iterations 535
time step continuity errors : sum local = 4.187699e-07, global = 1.913929e-06, cumulative = -0.3951007
DILUPBiCGStab:  Solving for p_rgh:  solution singularity
time step continuity errors : sum local = 4.187592e-07, global = 1.913875e-06, cumulative = -0.3950987
smoothSolver:  Solving for epsilon, Initial residual = 0.002973247, Final residual = 6.507961e-09, No Iterations 5
smoothSolver:  Solving for k, Initial residual = 0.0007078389, Final residual = 3.071387e-09, No Iterations 5
ExecutionTime = 26.58 s  ClockTime = 27 s

Courant Number mean: 0.0008089091 max: 0.9947882
Interface Courant Number mean: 2.602299e-07 max: 0.002081789
deltaT = 5.580072e-06
Time = 0.000642219

PIMPLE: iteration 1
inverseDistance : detected 2 mesh regions
    zone:0 nCells:190728  voxels:(300 300 1) bb:(-0.7 -1.7 -0.1) (0.7 1.1 0.1)
    zone:1 nCells:1728  voxels:(300 300 1) bb:(-0.7 -1.7 -0.1) (0.7 1.1 0.1)
Overset analysis : nCells : 192456
    calculated   : 172976
    interpolated : 1154 (from local:0  mixed local/remote:0  remote:1154)
    hole         : 18326

Execution time for mesh.update() = 0.4 s
Mesh Courant Number mean: 4.690599e-05 max: 0.02712031
smoothSolver:  Solving for alpha.water, Initial residual = 6.937915e-07, Final residual = 1.054847e-12, No Iterations 1
Phase-1 volume fraction = 0.1023287  Min(alpha.water) = -1.836264e-55  Max(alpha.water) = 1
MULES: Correcting alpha.water
MULES: Correcting alpha.water
MULES: Correcting alpha.water
Phase-1 volume fraction = 0.1023287  Min(alpha.water) = -1.836264e-55  Max(alpha.water) = 1
DILUPBiCGStab:  Solving for p_rgh, Initial residual = 0.0009460745, Final residual = 9.383471e-06, No Iterations 111
time step continuity errors : sum local = 3.337485e-07, global = 1.532965e-06, cumulative = -0.3950972
DILUPBiCGStab:  Solving for p_rgh, Initial residual = 2.77274e-05, Final residual = 2.360149e-07, No Iterations 675
time step continuity errors : sum local = 3.177077e-07, global = 1.463134e-06, cumulative = -0.3950957
DILUPBiCGStab:  Solving for p_rgh, Initial residual = 2.488475e-06, Final residual = 3.699409e-08, No Iterations 1000
time step continuity errors : sum local = 3.179581e-07, global = 1.464344e-06, cumulative = -0.3950943
smoothSolver:  Solving for epsilon, Initial residual = 0.02614144, Final residual = 2.175567e-09, No Iterations 7
smoothSolver:  Solving for k, Initial residual = 0.01414585, Final residual = 2.292769e-09, No Iterations 7
PIMPLE: iteration 2
smoothSolver:  Solving for alpha.water, Initial residual = 1.844592e-07, Final residual = 3.700493e-13, No Iterations 1
Phase-1 volume fraction = 0.1023287  Min(alpha.water) = -1.823051e-55  Max(alpha.water) = 1
MULES: Correcting alpha.water
MULES: Correcting alpha.water
MULES: Correcting alpha.water
Phase-1 volume fraction = 0.1023287  Min(alpha.water) = -1.823051e-55  Max(alpha.water) = 1
DILUPBiCGStab:  Solving for p_rgh, Initial residual = 1.598401e-05, Final residual = 1.334885e-07, No Iterations 123
time step continuity errors : sum local = 3.219203e-07, global = 1.48196e-06, cumulative = -0.3950928
DILUPBiCGStab:  Solving for p_rgh, Initial residual = 5.124891e-07, Final residual = 3.785824e-09, No Iterations 526
time step continuity errors : sum local = 3.220213e-07, global = 1.482454e-06, cumulative = -0.3950913
DILUPBiCGStab:  Solving for p_rgh, Initial residual = 1.173893e-07, Final residual = 1.268169e-09, No Iterations 1000
time step continuity errors : sum local = 3.220189e-07, global = 1.482445e-06, cumulative = -0.3950898
smoothSolver:  Solving for epsilon, Initial residual = 0.002676083, Final residual = 5.854616e-09, No Iterations 5
smoothSolver:  Solving for k, Initial residual = 0.0006068257, Final residual = 2.799038e-09, No Iterations 5
ExecutionTime = 28.79 s  ClockTime = 29 s

Courant Number mean: 0.0008122803 max: 0.9958184
Interface Courant Number mean: 2.612376e-07 max: 0.00209268
deltaT = 5.603461e-06
Time = 0.000647823

PIMPLE: iteration 1
inverseDistance : detected 2 mesh regions
    zone:0 nCells:190728  voxels:(300 300 1) bb:(-0.7 -1.7 -0.1) (0.7 1.1 0.1)
    zone:1 nCells:1728  voxels:(300 300 1) bb:(-0.7 -1.7 -0.1) (0.7 1.1 0.1)
Overset analysis : nCells : 192456
    calculated   : 172976
    interpolated : 1154 (from local:0  mixed local/remote:0  remote:1154)
    hole         : 18326

Execution time for mesh.update() = 0.44 s
Mesh Courant Number mean: 4.71076e-05 max: 0.02723688
smoothSolver:  Solving for alpha.water, Initial residual = 6.955022e-07, Final residual = 1.062468e-12, No Iterations 1
Phase-1 volume fraction = 0.1023287  Min(alpha.water) = -1.644279e-55  Max(alpha.water) = 1
MULES: Correcting alpha.water
MULES: Correcting alpha.water
MULES: Correcting alpha.water
Phase-1 volume fraction = 0.1023287  Min(alpha.water) = -1.644279e-55  Max(alpha.water) = 1
DILUPBiCGStab:  Solving for p_rgh, Initial residual = 0.001014886, Final residual = 8.827163e-06, No Iterations 105
time step continuity errors : sum local = 2.479604e-07, global = 1.151278e-06, cumulative = -0.3950887
DILUPBiCGStab:  Solving for p_rgh, Initial residual = 2.968865e-05, Final residual = 2.940801e-07, No Iterations 521
time step continuity errors : sum local = 2.399447e-07, global = 1.117287e-06, cumulative = -0.3950876
DILUPBiCGStab:  Solving for p_rgh, Initial residual = 2.666366e-06, Final residual = 1.846551e-08, No Iterations 1000
time step continuity errors : sum local = 2.400454e-07, global = 1.117812e-06, cumulative = -0.3950864
smoothSolver:  Solving for epsilon, Initial residual = 0.02515946, Final residual = 2.038206e-09, No Iterations 7
smoothSolver:  Solving for k, Initial residual = 0.01346578, Final residual = 2.20484e-09, No Iterations 7
PIMPLE: iteration 2
smoothSolver:  Solving for alpha.water, Initial residual = 1.859598e-07, Final residual = 3.808658e-13, No Iterations 1
Phase-1 volume fraction = 0.1023287  Min(alpha.water) = -1.644272e-55  Max(alpha.water) = 1
MULES: Correcting alpha.water
MULES: Correcting alpha.water
MULES: Correcting alpha.water
Phase-1 volume fraction = 0.1023287  Min(alpha.water) = -1.644272e-55  Max(alpha.water) = 1
DILUPBiCGStab:  Solving for p_rgh, Initial residual = 1.970009e-05, Final residual = 1.832758e-07, No Iterations 149
time step continuity errors : sum local = 2.43442e-07, global = 1.132879e-06, cumulative = -0.3950853
DILUPBiCGStab:  Solving for p_rgh, Initial residual = 6.362882e-07, Final residual = 1.924302e-08, No Iterations 1000
time step continuity errors : sum local = 2.435563e-07, global = 1.133419e-06, cumulative = -0.3950842
DILUPBiCGStab:  Solving for p_rgh, Initial residual = 1.289247e-07, Final residual = 9.242743e-10, No Iterations 1000
time step continuity errors : sum local = 2.435529e-07, global = 1.133409e-06, cumulative = -0.395083
smoothSolver:  Solving for epsilon, Initial residual = 0.002396291, Final residual = 5.285256e-09, No Iterations 5
smoothSolver:  Solving for k, Initial residual = 0.0005161989, Final residual = 2.557034e-09, No Iterations 5
ExecutionTime = 31.59 s  ClockTime = 32 s

Courant Number mean: 0.0008149859 max: 0.9962425
Interface Courant Number mean: 2.620564e-07 max: 0.002101768
deltaT = 5.623678e-06
Time = 0.000653446

PIMPLE: iteration 1
inverseDistance : detected 2 mesh regions
    zone:0 nCells:190728  voxels:(300 300 1) bb:(-0.7 -1.7 -0.1) (0.7 1.1 0.1)
    zone:1 nCells:1728  voxels:(300 300 1) bb:(-0.7 -1.7 -0.1) (0.7 1.1 0.1)
Overset analysis : nCells : 192456
    calculated   : 172976
    interpolated : 1154 (from local:0  mixed local/remote:0  remote:1154)
    hole         : 18326

Execution time for mesh.update() = 0.46 s
Mesh Courant Number mean: 4.72826e-05 max: 0.02733806
smoothSolver:  Solving for alpha.water, Initial residual = 6.971307e-07, Final residual = 1.070778e-12, No Iterations 1
Phase-1 volume fraction = 0.1023287  Min(alpha.water) = -1.643839e-55  Max(alpha.water) = 1
MULES: Correcting alpha.water
MULES: Correcting alpha.water
MULES: Correcting alpha.water
Phase-1 volume fraction = 0.1023287  Min(alpha.water) = -1.643839e-55  Max(alpha.water) = 1
DILUPBiCGStab:  Solving for p_rgh, Initial residual = 0.001120436, Final residual = 1.088386e-05, No Iterations 109
time step continuity errors : sum local = 1.784906e-07, global = 8.438676e-07, cumulative = -0.3950822
DILUPBiCGStab:  Solving for p_rgh, Initial residual = 3.572415e-05, Final residual = 3.204807e-07, No Iterations 644
time step continuity errors : sum local = 1.76207e-07, global = 8.346901e-07, cumulative = -0.3950814
DILUPBiCGStab:  Solving for p_rgh:  solution singularity
time step continuity errors : sum local = 1.76202e-07, global = 8.347207e-07, cumulative = -0.3950805
smoothSolver:  Solving for epsilon, Initial residual = 0.02414868, Final residual = 1.915893e-09, No Iterations 7
smoothSolver:  Solving for k, Initial residual = 0.01281821, Final residual = 2.12509e-09, No Iterations 7
PIMPLE: iteration 2
smoothSolver:  Solving for alpha.water, Initial residual = 1.873474e-07, Final residual = 3.918453e-13, No Iterations 1
Phase-1 volume fraction = 0.1023287  Min(alpha.water) = -1.643832e-55  Max(alpha.water) = 1
MULES: Correcting alpha.water
MULES: Correcting alpha.water
MULES: Correcting alpha.water
Phase-1 volume fraction = 0.1023287  Min(alpha.water) = -1.643832e-55  Max(alpha.water) = 1
DILUPBiCGStab:  Solving for p_rgh, Initial residual = 2.39303e-05, Final residual = 2.378049e-07, No Iterations 108
time step continuity errors : sum local = 1.784292e-07, global = 8.445909e-07, cumulative = -0.3950797
DILUPBiCGStab:  Solving for p_rgh, Initial residual = 7.770754e-07, Final residual = 6.915359e-09, No Iterations 387
time step continuity errors : sum local = 1.785632e-07, global = 8.452114e-07, cumulative = -0.3950788
DILUPBiCGStab:  Solving for p_rgh, Initial residual = 8.168677e-08, Final residual = 7.167546e-10, No Iterations 1000
time step continuity errors : sum local = 1.785613e-07, global = 8.452047e-07, cumulative = -0.395078
smoothSolver:  Solving for epsilon, Initial residual = 0.002148806, Final residual = 4.792172e-09, No Iterations 5
smoothSolver:  Solving for k, Initial residual = 0.0004395521, Final residual = 2.343887e-09, No Iterations 5
ExecutionTime = 35.18 s  ClockTime = 35 s

Courant Number mean: 0.0008174421 max: 0.9965604
Interface Courant Number mean: 2.628103e-07 max: 0.002110072
deltaT = 5.644054e-06
Time = 0.000659091

PIMPLE: iteration 1
inverseDistance : detected 2 mesh regions
    zone:0 nCells:190728  voxels:(300 300 1) bb:(-0.7 -1.7 -0.1) (0.7 1.1 0.1)
    zone:1 nCells:1728  voxels:(300 300 1) bb:(-0.7 -1.7 -0.1) (0.7 1.1 0.1)
Overset analysis : nCells : 192456
    calculated   : 172976
    interpolated : 1154 (from local:0  mixed local/remote:0  remote:1154)
    hole         : 18326

Execution time for mesh.update() = 0.36 s
Mesh Courant Number mean: 4.745899e-05 max: 0.02744004
smoothSolver:  Solving for alpha.water, Initial residual = 6.990177e-07, Final residual = 1.080797e-12, No Iterations 1
Phase-1 volume fraction = 0.1023287  Min(alpha.water) = -1.643266e-55  Max(alpha.water) = 1
MULES: Correcting alpha.water
MULES: Correcting alpha.water
MULES: Correcting alpha.water
Phase-1 volume fraction = 0.1023287  Min(alpha.water) = -1.643266e-55  Max(alpha.water) = 1
DILUPBiCGStab:  Solving for p_rgh, Initial residual = 0.001289937, Final residual = 9.979568e-06, No Iterations 118
time step continuity errors : sum local = 1.229231e-07, global = 5.98068e-07, cumulative = -0.3950774
DILUPBiCGStab:  Solving for p_rgh, Initial residual = 4.030052e-05, Final residual = 9.236331e-07, No Iterations 1000
time step continuity errors : sum local = 1.228016e-07, global = 5.980873e-07, cumulative = -0.3950768
DILUPBiCGStab:  Solving for p_rgh, Initial residual = 3.403056e-06, Final residual = 4.915482e-08, No Iterations 1000
time step continuity errors : sum local = 1.227862e-07, global = 5.981212e-07, cumulative = -0.3950762
smoothSolver:  Solving for epsilon, Initial residual = 0.0231442, Final residual = 1.807589e-09, No Iterations 7
smoothSolver:  Solving for k, Initial residual = 0.01220908, Final residual = 2.053232e-09, No Iterations 7
PIMPLE: iteration 2
smoothSolver:  Solving for alpha.water, Initial residual = 1.885919e-07, Final residual = 4.029292e-13, No Iterations 1
Phase-1 volume fraction = 0.1023287  Min(alpha.water) = -1.643259e-55  Max(alpha.water) = 1
MULES: Correcting alpha.water
MULES: Correcting alpha.water
MULES: Correcting alpha.water
Phase-1 volume fraction = 0.1023287  Min(alpha.water) = -1.643259e-55  Max(alpha.water) = 1
DILUPBiCGStab:  Solving for p_rgh, Initial residual = 3.046526e-05, Final residual = 2.374965e-07, No Iterations 120
time step continuity errors : sum local = 1.244446e-07, global = 6.05537e-07, cumulative = -0.3950756
DILUPBiCGStab:  Solving for p_rgh, Initial residual = 8.854274e-07, Final residual = 2.821458e-08, No Iterations 1000
time step continuity errors : sum local = 1.24548e-07, global = 6.060226e-07, cumulative = -0.395075
DILUPBiCGStab:  Solving for p_rgh, Initial residual = 1.369472e-07, Final residual = 6.005378e-09, No Iterations 1000
time step continuity errors : sum local = 1.24545e-07, global = 6.060128e-07, cumulative = -0.3950744
smoothSolver:  Solving for epsilon, Initial residual = 0.00193209, Final residual = 4.366656e-09, No Iterations 5
smoothSolver:  Solving for k, Initial residual = 0.0003749441, Final residual = 2.156026e-09, No Iterations 5
ExecutionTime = 37.76 s  ClockTime = 38 s

Courant Number mean: 0.0008200946 max: 0.9972969
Interface Courant Number mean: 2.636351e-07 max: 0.002118714
deltaT = 5.657728e-06
Time = 0.000664748

PIMPLE: iteration 1
inverseDistance : detected 2 mesh regions
    zone:0 nCells:190728  voxels:(300 300 1) bb:(-0.7 -1.7 -0.1) (0.7 1.1 0.1)
    zone:1 nCells:1728  voxels:(300 300 1) bb:(-0.7 -1.7 -0.1) (0.7 1.1 0.1)
Overset analysis : nCells : 192456
    calculated   : 172976
    interpolated : 1154 (from local:0  mixed local/remote:0  remote:1154)
    hole         : 18326

Execution time for mesh.update() = 0.36 s
Mesh Courant Number mean: 4.757907e-05 max: 0.02750947
smoothSolver:  Solving for alpha.water, Initial residual = 7.002606e-07, Final residual = 1.089625e-12, No Iterations 1
Phase-1 volume fraction = 0.1023287  Min(alpha.water) = -1.642676e-55  Max(alpha.water) = 1
MULES: Correcting alpha.water
MULES: Correcting alpha.water
MULES: Correcting alpha.water
Phase-1 volume fraction = 0.1023287  Min(alpha.water) = -1.642676e-55  Max(alpha.water) = 1
DILUPBiCGStab:  Solving for p_rgh, Initial residual = 0.001537641, Final residual = 1.24306e-05, No Iterations 113
time step continuity errors : sum local = 7.934872e-08, global = 3.997563e-07, cumulative = -0.395074
DILUPBiCGStab:  Solving for p_rgh, Initial residual = 5.334503e-05, Final residual = 5.223688e-07, No Iterations 790
time step continuity errors : sum local = 7.9413e-08, global = 4.003912e-07, cumulative = -0.3950736
DILUPBiCGStab:  Solving for p_rgh, Initial residual = 4.150752e-06, Final residual = 8.313808e-10, No Iterations 1000
time step continuity errors : sum local = 7.939872e-08, global = 4.003791e-07, cumulative = -0.3950732
smoothSolver:  Solving for epsilon, Initial residual = 0.02213267, Final residual = 1.708957e-09, No Iterations 7
smoothSolver:  Solving for k, Initial residual = 0.01162182, Final residual = 1.985276e-09, No Iterations 7
PIMPLE: iteration 2
smoothSolver:  Solving for alpha.water, Initial residual = 1.894299e-07, Final residual = 4.133646e-13, No Iterations 1
Phase-1 volume fraction = 0.1023287  Min(alpha.water) = -1.642669e-55  Max(alpha.water) = 1
MULES: Correcting alpha.water
MULES: Correcting alpha.water
MULES: Correcting alpha.water
Phase-1 volume fraction = 0.1023287  Min(alpha.water) = -1.642669e-55  Max(alpha.water) = 1
DILUPBiCGStab:  Solving for p_rgh, Initial residual = 4.127577e-05, Final residual = 3.816798e-07, No Iterations 203
time step continuity errors : sum local = 8.066336e-08, global = 4.062652e-07, cumulative = -0.3950728
DILUPBiCGStab:  Solving for p_rgh, Initial residual = 1.183522e-06, Final residual = 1.181797e-08, No Iterations 363
time step continuity errors : sum local = 8.072045e-08, global = 4.065733e-07, cumulative = -0.3950724
DILUPBiCGStab:  Solving for p_rgh, Initial residual = 1.451133e-07, Final residual = 1.11457e-09, No Iterations 1000
time step continuity errors : sum local = 8.071906e-08, global = 4.065684e-07, cumulative = -0.395072
smoothSolver:  Solving for epsilon, Initial residual = 0.001738576, Final residual = 3.987209e-09, No Iterations 5
smoothSolver:  Solving for k, Initial residual = 0.0003194996, Final residual = 1.983596e-09, No Iterations 5
ExecutionTime = 40.64 s  ClockTime = 41 s

Courant Number mean: 0.0008219132 max: 0.9971863
Interface Courant Number mean: 2.641964e-07 max: 0.00212503
deltaT = 5.674925e-06
Time = 0.000670423

PIMPLE: iteration 1
inverseDistance : detected 2 mesh regions
    zone:0 nCells:190728  voxels:(300 300 1) bb:(-0.7 -1.7 -0.1) (0.7 1.1 0.1)
    zone:1 nCells:1728  voxels:(300 300 1) bb:(-0.7 -1.7 -0.1) (0.7 1.1 0.1)
Overset analysis : nCells : 192456
    calculated   : 172976
    interpolated : 1154 (from local:0  mixed local/remote:0  remote:1154)
    hole         : 18326

Execution time for mesh.update() = 0.48 s
Mesh Courant Number mean: 4.772881e-05 max: 0.02759605
smoothSolver:  Solving for alpha.water, Initial residual = 7.020857e-07, Final residual = 1.101077e-12, No Iterations 1
Phase-1 volume fraction = 0.1023287  Min(alpha.water) = -1.642069e-55  Max(alpha.water) = 1
MULES: Correcting alpha.water
MULES: Correcting alpha.water
MULES: Correcting alpha.water
Phase-1 volume fraction = 0.1023287  Min(alpha.water) = -1.642069e-55  Max(alpha.water) = 1
DILUPBiCGStab:  Solving for p_rgh, Initial residual = 0.002012945, Final residual = 1.571635e-05, No Iterations 104
time step continuity errors : sum local = 4.508525e-08, global = 2.311237e-07, cumulative = -0.3950717
DILUPBiCGStab:  Solving for p_rgh, Initial residual = 8.108842e-05, Final residual = 4.123975e-06, No Iterations 1000
time step continuity errors : sum local = 4.587943e-08, global = 2.353173e-07, cumulative = -0.3950715
DILUPBiCGStab:  Solving for p_rgh, Initial residual = 8.126725e-06, Final residual = 3.268904e-07, No Iterations 1000
time step continuity errors : sum local = 4.566746e-08, global = 2.344001e-07, cumulative = -0.3950713
smoothSolver:  Solving for epsilon, Initial residual = 0.02116563, Final residual = 1.622199e-09, No Iterations 7
smoothSolver:  Solving for k, Initial residual = 0.01107738, Final residual = 1.924707e-09, No Iterations 7
PIMPLE: iteration 2
smoothSolver:  Solving for alpha.water, Initial residual = 1.901208e-07, Final residual = 4.248512e-13, No Iterations 1
Phase-1 volume fraction = 0.1023287  Min(alpha.water) = -1.642062e-55  Max(alpha.water) = 1
MULES: Correcting alpha.water
MULES: Correcting alpha.water
MULES: Correcting alpha.water
Phase-1 volume fraction = 0.1023287  Min(alpha.water) = -1.642062e-55  Max(alpha.water) = 1
DILUPBiCGStab:  Solving for p_rgh, Initial residual = 6.440901e-05, Final residual = 3.24197e-07, No Iterations 161
time step continuity errors : sum local = 4.649555e-08, global = 2.387773e-07, cumulative = -0.395071
DILUPBiCGStab:  Solving for p_rgh, Initial residual = 1.599514e-06, Final residual = 1.5556e-08, No Iterations 396
time step continuity errors : sum local = 4.65538e-08, global = 2.391111e-07, cumulative = -0.3950708
DILUPBiCGStab:  Solving for p_rgh, Initial residual = 1.489876e-07, Final residual = 2.296211e-09, No Iterations 1000
time step continuity errors : sum local = 4.655192e-08, global = 2.391035e-07, cumulative = -0.3950705
smoothSolver:  Solving for epsilon, Initial residual = 0.001571035, Final residual = 3.660335e-09, No Iterations 5
smoothSolver:  Solving for k, Initial residual = 0.0002726448, Final residual = 1.831508e-09, No Iterations 5
ExecutionTime = 44 s  ClockTime = 44 s

Courant Number mean: 0.0008243577 max: 0.9979841
Interface Courant Number mean: 2.649608e-07 max: 0.002132795
deltaT = 5.6853e-06
Time = 0.000676108

PIMPLE: iteration 1
inverseDistance : detected 2 mesh regions
    zone:0 nCells:190728  voxels:(300 300 1) bb:(-0.7 -1.7 -0.1) (0.7 1.1 0.1)
    zone:1 nCells:1728  voxels:(300 300 1) bb:(-0.7 -1.7 -0.1) (0.7 1.1 0.1)
Overset analysis : nCells : 192456
    calculated   : 172976
    interpolated : 1154 (from local:0  mixed local/remote:0  remote:1154)
    hole         : 18326

Execution time for mesh.update() = 0.4 s
Mesh Courant Number mean: 4.782121e-05 max: 0.02764948
smoothSolver:  Solving for alpha.water, Initial residual = 7.031831e-07, Final residual = 1.110947e-12, No Iterations 1
Phase-1 volume fraction = 0.1023287  Min(alpha.water) = -1.641449e-55  Max(alpha.water) = 1
MULES: Correcting alpha.water
MULES: Correcting alpha.water
MULES: Correcting alpha.water
Phase-1 volume fraction = 0.1023287  Min(alpha.water) = -1.641449e-55  Max(alpha.water) = 1
DILUPBiCGStab:  Solving for p_rgh, Initial residual = 0.00296725, Final residual = 1.410601e-05, No Iterations 115
time step continuity errors : sum local = 2.60059e-08, global = 9.875652e-08, cumulative = -0.3950704
DILUPBiCGStab:  Solving for p_rgh, Initial residual = 0.0001506303, Final residual = 1.294295e-06, No Iterations 572
time step continuity errors : sum local = 2.5771e-08, global = 9.497788e-08, cumulative = -0.3950704
DILUPBiCGStab:  Solving for p_rgh, Initial residual = 1.330153e-05, Final residual = 2.848408e-06, No Iterations 1000
time step continuity errors : sum local = 2.580541e-08, global = 9.542403e-08, cumulative = -0.3950703
smoothSolver:  Solving for epsilon, Initial residual = 0.02021717, Final residual = 1.542441e-09, No Iterations 7
smoothSolver:  Solving for k, Initial residual = 0.01055963, Final residual = 1.866652e-09, No Iterations 7
PIMPLE: iteration 2
smoothSolver:  Solving for alpha.water, Initial residual = 1.901483e-07, Final residual = 4.359881e-13, No Iterations 1
Phase-1 volume fraction = 0.1023287  Min(alpha.water) = -1.641441e-55  Max(alpha.water) = 1
MULES: Correcting alpha.water
MULES: Correcting alpha.water
MULES: Correcting alpha.water
Phase-1 volume fraction = 0.1023287  Min(alpha.water) = -1.641441e-55  Max(alpha.water) = 1
DILUPBiCGStab:  Solving for p_rgh, Initial residual = 0.0001119658, Final residual = 1.051462e-06, No Iterations 241
time step continuity errors : sum local = 2.585151e-08, global = 9.604234e-08, cumulative = -0.3950702
DILUPBiCGStab:  Solving for p_rgh, Initial residual = 4.176982e-06, Final residual = 4.041712e-08, No Iterations 412
time step continuity errors : sum local = 2.585891e-08, global = 9.617763e-08, cumulative = -0.3950701
DILUPBiCGStab:  Solving for p_rgh, Initial residual = 4.084721e-07, Final residual = 3.19437e-09, No Iterations 1000
time step continuity errors : sum local = 2.585827e-08, global = 9.617383e-08, cumulative = -0.39507
smoothSolver:  Solving for epsilon, Initial residual = 0.001420805, Final residual = 3.363434e-09, No Iterations 5
smoothSolver:  Solving for k, Initial residual = 0.0002319054, Final residual = 1.690192e-09, No Iterations 5
ExecutionTime = 46.23 s  ClockTime = 47 s

Courant Number mean: 0.0008259057 max: 0.9978155
Interface Courant Number mean: 2.654373e-07 max: 0.002138078
deltaT = 5.6992e-06
Time = 0.000681808

PIMPLE: iteration 1
inverseDistance : detected 2 mesh regions
    zone:0 nCells:190728  voxels:(300 300 1) bb:(-0.7 -1.7 -0.1) (0.7 1.1 0.1)
    zone:1 nCells:1728  voxels:(300 300 1) bb:(-0.7 -1.7 -0.1) (0.7 1.1 0.1)
Overset analysis : nCells : 192456
    calculated   : 172976
    interpolated : 1154 (from local:0  mixed local/remote:0  remote:1154)
    hole         : 18326

Execution time for mesh.update() = 0.4 s
Mesh Courant Number mean: 4.79433e-05 max: 0.02772007
smoothSolver:  Solving for alpha.water, Initial residual = 7.04811e-07, Final residual = 1.123242e-12, No Iterations 1
Phase-1 volume fraction = 0.1023288  Min(alpha.water) = -1.640812e-55  Max(alpha.water) = 1
MULES: Correcting alpha.water
MULES: Correcting alpha.water
MULES: Correcting alpha.water
Phase-1 volume fraction = 0.1023288  Min(alpha.water) = -1.640812e-55  Max(alpha.water) = 1
DILUPBiCGStab:  Solving for p_rgh, Initial residual = 0.006623179, Final residual = 6.520272e-05, No Iterations 101
time step continuity errors : sum local = 3.277533e-08, global = 7.737178e-09, cumulative = -0.39507
DILUPBiCGStab:  Solving for p_rgh, Initial residual = 0.0002085845, Final residual = 1.949288e-06, No Iterations 517
time step continuity errors : sum local = 3.970757e-08, global = -2.448047e-08, cumulative = -0.39507
DILUPBiCGStab:  Solving for p_rgh, Initial residual = 1.183993e-05, Final residual = 4.694975e-08, No Iterations 1000
time step continuity errors : sum local = 3.956982e-08, global = -2.393307e-08, cumulative = -0.39507
smoothSolver:  Solving for epsilon, Initial residual = 0.01931805, Final residual = 1.471731e-09, No Iterations 7
smoothSolver:  Solving for k, Initial residual = 0.01007803, Final residual = 1.814384e-09, No Iterations 7
PIMPLE: iteration 2
smoothSolver:  Solving for alpha.water, Initial residual = 1.896447e-07, Final residual = 4.480136e-13, No Iterations 1
Phase-1 volume fraction = 0.1023288  Min(alpha.water) = -1.640805e-55  Max(alpha.water) = 1
MULES: Correcting alpha.water
MULES: Correcting alpha.water
MULES: Correcting alpha.water
Phase-1 volume fraction = 0.1023288  Min(alpha.water) = -1.640805e-55  Max(alpha.water) = 1
DILUPBiCGStab:  Solving for p_rgh, Initial residual = 9.041812e-05, Final residual = 8.341491e-07, No Iterations 28
time step continuity errors : sum local = 3.956472e-08, global = -2.390523e-08, cumulative = -0.39507
DILUPBiCGStab:  Solving for p_rgh, Initial residual = 3.133906e-06, Final residual = 2.675175e-08, No Iterations 186
time step continuity errors : sum local = 3.956659e-08, global = -2.392732e-08, cumulative = -0.3950701
DILUPBiCGStab:  Solving for p_rgh:  solution singularity
time step continuity errors : sum local = 3.956677e-08, global = -2.392841e-08, cumulative = -0.3950701
smoothSolver:  Solving for epsilon, Initial residual = 0.001291421, Final residual = 3.106844e-09, No Iterations 5
smoothSolver:  Solving for k, Initial residual = 0.0001975515, Final residual = 9.479297e-09, No Iterations 4
ExecutionTime = 48.55 s  ClockTime = 49 s

Courant Number mean: 0.0008280429 max: 0.9984651
Interface Courant Number mean: 2.661026e-07 max: 0.002144735
deltaT = 5.709677e-06
Time = 0.000687517

PIMPLE: iteration 1
inverseDistance : detected 2 mesh regions
    zone:0 nCells:190728  voxels:(300 300 1) bb:(-0.7 -1.7 -0.1) (0.7 1.1 0.1)
    zone:1 nCells:1728  voxels:(300 300 1) bb:(-0.7 -1.7 -0.1) (0.7 1.1 0.1)
Overset analysis : nCells : 192456
    calculated   : 172976
    interpolated : 1154 (from local:0  mixed local/remote:0  remote:1154)
    hole         : 18326

Execution time for mesh.update() = 0.37 s
Mesh Courant Number mean: 4.803662e-05 max: 0.02777402
smoothSolver:  Solving for alpha.water, Initial residual = 7.060918e-07, Final residual = 1.135078e-12, No Iterations 1
Phase-1 volume fraction = 0.1023288  Min(alpha.water) = -1.640161e-55  Max(alpha.water) = 1
MULES: Correcting alpha.water
MULES: Correcting alpha.water
MULES: Correcting alpha.water
Phase-1 volume fraction = 0.1023288  Min(alpha.water) = -1.640161e-55  Max(alpha.water) = 1
DILUPBiCGStab:  Solving for p_rgh, Initial residual = 0.005168385, Final residual = 4.164189e-05, No Iterations 99
time step continuity errors : sum local = 5.839679e-08, global = -1.092556e-07, cumulative = -0.3950702
DILUPBiCGStab:  Solving for p_rgh, Initial residual = 7.403317e-05, Final residual = 5.87373e-07, No Iterations 371
time step continuity errors : sum local = 6.154483e-08, global = -1.242688e-07, cumulative = -0.3950703
DILUPBiCGStab:  Solving for p_rgh, Initial residual = 5.169577e-06, Final residual = 8.249882e-08, No Iterations 1000
time step continuity errors : sum local = 6.148488e-08, global = -1.240573e-07, cumulative = -0.3950704
smoothSolver:  Solving for epsilon, Initial residual = 0.01844741, Final residual = 1.406939e-09, No Iterations 7
smoothSolver:  Solving for k, Initial residual = 0.009617851, Final residual = 1.764663e-09, No Iterations 7
PIMPLE: iteration 2
smoothSolver:  Solving for alpha.water, Initial residual = 1.87983e-07, Final residual = 4.596307e-13, No Iterations 1
Phase-1 volume fraction = 0.1023288  Min(alpha.water) = -1.640154e-55  Max(alpha.water) = 1
MULES: Correcting alpha.water
MULES: Correcting alpha.water
MULES: Correcting alpha.water
Phase-1 volume fraction = 0.1023288  Min(alpha.water) = -1.640154e-55  Max(alpha.water) = 1
DILUPBiCGStab:  Solving for p_rgh, Initial residual = 4.414144e-05, Final residual = 3.177837e-07, No Iterations 143
time step continuity errors : sum local = 6.169516e-08, global = -1.250357e-07, cumulative = -0.3950706
DILUPBiCGStab:  Solving for p_rgh, Initial residual = 1.545835e-06, Final residual = 1.534429e-08, No Iterations 608
time step continuity errors : sum local = 6.16848e-08, global = -1.250061e-07, cumulative = -0.3950707
DILUPBiCGStab:  Solving for p_rgh, Initial residual = 8.116899e-08, Final residual = 5.017643e-08, No Iterations 1000
time step continuity errors : sum local = 6.168468e-08, global = -1.250044e-07, cumulative = -0.3950708
smoothSolver:  Solving for epsilon, Initial residual = 0.00117666, Final residual = 2.875771e-09, No Iterations 5
smoothSolver:  Solving for k, Initial residual = 0.0001678228, Final residual = 8.422889e-09, No Iterations 4
ExecutionTime = 52.31 s  ClockTime = 53 s

Courant Number mean: 0.0008297458 max: 0.9986874
Interface Courant Number mean: 2.691202e-07 max: 0.002150131
deltaT = 5.716687e-06
Time = 0.000693234

PIMPLE: iteration 1
inverseDistance : detected 2 mesh regions
    zone:0 nCells:190728  voxels:(300 300 1) bb:(-0.7 -1.7 -0.1) (0.7 1.1 0.1)
    zone:1 nCells:1728  voxels:(300 300 1) bb:(-0.7 -1.7 -0.1) (0.7 1.1 0.1)
Overset analysis : nCells : 192456
    calculated   : 172976
    interpolated : 1154 (from local:0  mixed local/remote:0  remote:1154)
    hole         : 18326

Execution time for mesh.update() = 0.45 s
Mesh Courant Number mean: 4.81008e-05 max: 0.02781113
smoothSolver:  Solving for alpha.water, Initial residual = 7.070058e-07, Final residual = 1.146233e-12, No Iterations 1
Phase-1 volume fraction = 0.1023288  Min(alpha.water) = -1.639497e-55  Max(alpha.water) = 1
MULES: Correcting alpha.water
MULES: Correcting alpha.water
MULES: Correcting alpha.water
Phase-1 volume fraction = 0.1023288  Min(alpha.water) = -1.639497e-55  Max(alpha.water) = 1
DILUPBiCGStab:  Solving for p_rgh, Initial residual = 0.002358854, Final residual = 1.546335e-05, No Iterations 94
time step continuity errors : sum local = 7.635636e-08, global = -1.909952e-07, cumulative = -0.395071
DILUPBiCGStab:  Solving for p_rgh, Initial residual = 4.550814e-05, Final residual = 3.64887e-07, No Iterations 379
time step continuity errors : sum local = 8.009035e-08, global = -2.085291e-07, cumulative = -0.3950712
DILUPBiCGStab:  Solving for p_rgh, Initial residual = 3.474314e-06, Final residual = 1.849974e-08, No Iterations 1000
time step continuity errors : sum local = 8.000967e-08, global = -2.082094e-07, cumulative = -0.3950714
smoothSolver:  Solving for epsilon, Initial residual = 0.01760803, Final residual = 1.347321e-09, No Iterations 7
smoothSolver:  Solving for k, Initial residual = 0.009178902, Final residual = 1.717196e-09, No Iterations 7
PIMPLE: iteration 2
smoothSolver:  Solving for alpha.water, Initial residual = 1.847436e-07, Final residual = 4.702829e-13, No Iterations 1
Phase-1 volume fraction = 0.1023288  Min(alpha.water) = -1.639491e-55  Max(alpha.water) = 1
MULES: Correcting alpha.water
MULES: Correcting alpha.water
MULES: Correcting alpha.water
Phase-1 volume fraction = 0.1023288  Min(alpha.water) = -1.639491e-55  Max(alpha.water) = 1
DILUPBiCGStab:  Solving for p_rgh, Initial residual = 2.965217e-05, Final residual = 2.502445e-07, No Iterations 257
time step continuity errors : sum local = 8.026935e-08, global = -2.094137e-07, cumulative = -0.3950716
DILUPBiCGStab:  Solving for p_rgh, Initial residual = 1.08047e-06, Final residual = 8.709153e-09, No Iterations 276
time step continuity errors : sum local = 8.039113e-08, global = -2.099816e-07, cumulative = -0.3950718
DILUPBiCGStab:  Solving for p_rgh, Initial residual = 6.453001e-08, Final residual = 1.725935e-09, No Iterations 1000
time step continuity errors : sum local = 8.038901e-08, global = -2.099736e-07, cumulative = -0.3950721
smoothSolver:  Solving for epsilon, Initial residual = 0.001074874, Final residual = 2.666669e-09, No Iterations 5
smoothSolver:  Solving for k, Initial residual = 0.0001420784, Final residual = 7.482752e-09, No Iterations 4
ExecutionTime = 55.13 s  ClockTime = 56 s

Courant Number mean: 0.0008309966 max: 0.998455
Interface Courant Number mean: 2.694998e-07 max: 0.00215423
deltaT = 5.727241e-06
Time = 0.000698961

PIMPLE: iteration 1
inverseDistance : detected 2 mesh regions
    zone:0 nCells:190728  voxels:(300 300 1) bb:(-0.7 -1.7 -0.1) (0.7 1.1 0.1)
    zone:1 nCells:1728  voxels:(300 300 1) bb:(-0.7 -1.7 -0.1) (0.7 1.1 0.1)
Overset analysis : nCells : 192456
    calculated   : 172976
    interpolated : 1154 (from local:0  mixed local/remote:0  remote:1154)
    hole         : 18326

Execution time for mesh.update() = 0.41 s
Mesh Courant Number mean: 4.819481e-05 max: 0.02786549
smoothSolver:  Solving for alpha.water, Initial residual = 7.084082e-07, Final residual = 1.158979e-12, No Iterations 1
Phase-1 volume fraction = 0.1023288  Min(alpha.water) = -1.63882e-55  Max(alpha.water) = 1
MULES: Correcting alpha.water
MULES: Correcting alpha.water
MULES: Correcting alpha.water
Phase-1 volume fraction = 0.1023288  Min(alpha.water) = -1.63882e-55  Max(alpha.water) = 1
DILUPBiCGStab:  Solving for p_rgh, Initial residual = 0.001531125, Final residual = 5.668347e-06, No Iterations 90
time step continuity errors : sum local = 9.608129e-08, global = -2.803063e-07, cumulative = -0.3950723
DILUPBiCGStab:  Solving for p_rgh, Initial residual = 2.91919e-05, Final residual = 2.870258e-07, No Iterations 950
time step continuity errors : sum local = 9.605546e-08, global = -2.805194e-07, cumulative = -0.3950726
DILUPBiCGStab:  Solving for p_rgh, Initial residual = 2.196989e-06, Final residual = 1.946283e-08, No Iterations 1000
time step continuity errors : sum local = 9.603665e-08, global = -2.804571e-07, cumulative = -0.3950729
smoothSolver:  Solving for epsilon, Initial residual = 0.01682188, Final residual = 1.294008e-09, No Iterations 7
smoothSolver:  Solving for k, Initial residual = 0.008771743, Final residual = 1.674056e-09, No Iterations 7
PIMPLE: iteration 2
smoothSolver:  Solving for alpha.water, Initial residual = 1.805333e-07, Final residual = 4.378373e-13, No Iterations 1
Phase-1 volume fraction = 0.1023288  Min(alpha.water) = -1.638813e-55  Max(alpha.water) = 1
MULES: Correcting alpha.water
MULES: Correcting alpha.water
MULES: Correcting alpha.water
Phase-1 volume fraction = 0.1023288  Min(alpha.water) = -1.638813e-55  Max(alpha.water) = 1
DILUPBiCGStab:  Solving for p_rgh, Initial residual = 2.295794e-05, Final residual = 1.943992e-07, No Iterations 112
time step continuity errors : sum local = 9.659994e-08, global = -2.830487e-07, cumulative = -0.3950732
DILUPBiCGStab:  Solving for p_rgh, Initial residual = 8.866716e-07, Final residual = 1.820393e-08, No Iterations 1000
time step continuity errors : sum local = 9.660947e-08, global = -2.831055e-07, cumulative = -0.3950735
DILUPBiCGStab:  Solving for p_rgh, Initial residual = 8.754292e-08, Final residual = 7.754598e-11, No Iterations 485
time step continuity errors : sum local = 9.660924e-08, global = -2.831064e-07, cumulative = -0.3950737
smoothSolver:  Solving for epsilon, Initial residual = 0.0009867238, Final residual = 2.482819e-09, No Iterations 5
smoothSolver:  Solving for k, Initial residual = 0.0001200854, Final residual = 6.661683e-09, No Iterations 4
ExecutionTime = 57.7 s  ClockTime = 58 s

Courant Number mean: 0.0008328049 max: 0.9989734
Interface Courant Number mean: 2.700595e-07 max: 0.002159661
deltaT = 5.734303e-06
Time = 0.000704696

PIMPLE: iteration 1
inverseDistance : detected 2 mesh regions
    zone:0 nCells:190728  voxels:(300 300 1) bb:(-0.7 -1.7 -0.1) (0.7 1.1 0.1)
    zone:1 nCells:1728  voxels:(300 300 1) bb:(-0.7 -1.7 -0.1) (0.7 1.1 0.1)
Overset analysis : nCells : 192456
    calculated   : 172976
    interpolated : 1154 (from local:0  mixed local/remote:0  remote:1154)
    hole         : 18326

Execution time for mesh.update() = 0.35 s
Mesh Courant Number mean: 4.825947e-05 max: 0.02790287
smoothSolver:  Solving for alpha.water, Initial residual = 7.094202e-07, Final residual = 1.165206e-12, No Iterations 1
Phase-1 volume fraction = 0.1023288  Min(alpha.water) = -1.63813e-55  Max(alpha.water) = 1
MULES: Correcting alpha.water
MULES: Correcting alpha.water
MULES: Correcting alpha.water
Phase-1 volume fraction = 0.1023288  Min(alpha.water) = -1.63813e-55  Max(alpha.water) = 1
DILUPBiCGStab:  Solving for p_rgh, Initial residual = 0.001099815, Final residual = 5.133849e-06, No Iterations 90
time step continuity errors : sum local = 1.110168e-07, global = -3.472961e-07, cumulative = -0.3950741
DILUPBiCGStab:  Solving for p_rgh, Initial residual = 2.440359e-05, Final residual = 1.986357e-07, No Iterations 919
time step continuity errors : sum local = 1.098341e-07, global = -3.422273e-07, cumulative = -0.3950744
DILUPBiCGStab:  Solving for p_rgh, Initial residual = 1.755421e-06, Final residual = 3.38846e-10, No Iterations 1000
time step continuity errors : sum local = 1.09833e-07, global = -3.422355e-07, cumulative = -0.3950748
smoothSolver:  Solving for epsilon, Initial residual = 0.01606694, Final residual = 9.794411e-09, No Iterations 6
smoothSolver:  Solving for k, Initial residual = 0.008383496, Final residual = 1.632499e-09, No Iterations 7
PIMPLE: iteration 2
smoothSolver:  Solving for alpha.water, Initial residual = 1.763813e-07, Final residual = 4.235296e-13, No Iterations 1
Phase-1 volume fraction = 0.1023288  Min(alpha.water) = -1.638124e-55  Max(alpha.water) = 1
MULES: Correcting alpha.water
MULES: Correcting alpha.water
MULES: Correcting alpha.water
Phase-1 volume fraction = 0.1023288  Min(alpha.water) = -1.638124e-55  Max(alpha.water) = 1
DILUPBiCGStab:  Solving for p_rgh, Initial residual = 1.909466e-05, Final residual = 8.807808e-08, No Iterations 109
time step continuity errors : sum local = 1.105204e-07, global = -3.453883e-07, cumulative = -0.3950751
DILUPBiCGStab:  Solving for p_rgh, Initial residual = 7.055304e-07, Final residual = 4.098076e-09, No Iterations 789
time step continuity errors : sum local = 1.105369e-07, global = -3.454775e-07, cumulative = -0.3950755
DILUPBiCGStab:  Solving for p_rgh, Initial residual = 7.618336e-08, Final residual = 8.696539e-11, No Iterations 804
time step continuity errors : sum local = 1.10537e-07, global = -3.454782e-07, cumulative = -0.3950758
smoothSolver:  Solving for epsilon, Initial residual = 0.0009083359, Final residual = 2.314999e-09, No Iterations 5
smoothSolver:  Solving for k, Initial residual = 0.0001009523, Final residual = 5.926044e-09, No Iterations 4
ExecutionTime = 59.85 s  ClockTime = 60 s

Courant Number mean: 0.0008341406 max: 0.9989991
Interface Courant Number mean: 2.704654e-07 max: 0.002163765
deltaT = 5.741386e-06
Time = 0.000710437

PIMPLE: iteration 1
inverseDistance : detected 2 mesh regions
    zone:0 nCells:190728  voxels:(300 300 1) bb:(-0.7 -1.7 -0.1) (0.7 1.1 0.1)
    zone:1 nCells:1728  voxels:(300 300 1) bb:(-0.7 -1.7 -0.1) (0.7 1.1 0.1)
Overset analysis : nCells : 192456
    calculated   : 172976
    interpolated : 1154 (from local:0  mixed local/remote:0  remote:1154)
    hole         : 18326

Execution time for mesh.update() = 0.43 s
Mesh Courant Number mean: 4.832432e-05 max: 0.02794037
smoothSolver:  Solving for alpha.water, Initial residual = 7.104686e-07, Final residual = 1.169743e-12, No Iterations 1
Phase-1 volume fraction = 0.1023288  Min(alpha.water) = -1.637429e-55  Max(alpha.water) = 1
MULES: Correcting alpha.water
MULES: Correcting alpha.water
MULES: Correcting alpha.water
Phase-1 volume fraction = 0.1023288  Min(alpha.water) = -1.637429e-55  Max(alpha.water) = 1
DILUPBiCGStab:  Solving for p_rgh, Initial residual = 0.0008584274, Final residual = 4.126693e-06, No Iterations 100
time step continuity errors : sum local = 1.242811e-07, global = -4.065052e-07, cumulative = -0.3950762
DILUPBiCGStab:  Solving for p_rgh, Initial residual = 2.105249e-05, Final residual = 2.037623e-07, No Iterations 500
time step continuity errors : sum local = 1.21782e-07, global = -3.953346e-07, cumulative = -0.3950766
DILUPBiCGStab:  Solving for p_rgh, Initial residual = 1.50128e-06, Final residual = 1.21747e-08, No Iterations 1000
time step continuity errors : sum local = 1.218011e-07, global = -3.954327e-07, cumulative = -0.395077
smoothSolver:  Solving for epsilon, Initial residual = 0.01535295, Final residual = 9.34753e-09, No Iterations 6
smoothSolver:  Solving for k, Initial residual = 0.008018449, Final residual = 1.593417e-09, No Iterations 7
PIMPLE: iteration 2
smoothSolver:  Solving for alpha.water, Initial residual = 1.780666e-07, Final residual = 4.275663e-13, No Iterations 1
Phase-1 volume fraction = 0.1023288  Min(alpha.water) = -1.637422e-55  Max(alpha.water) = 1
MULES: Correcting alpha.water
MULES: Correcting alpha.water
MULES: Correcting alpha.water
Phase-1 volume fraction = 0.1023288  Min(alpha.water) = -1.637422e-55  Max(alpha.water) = 1
DILUPBiCGStab:  Solving for p_rgh, Initial residual = 1.705021e-05, Final residual = 1.695364e-07, No Iterations 104
time step continuity errors : sum local = 1.226741e-07, global = -3.994288e-07, cumulative = -0.3950774
DILUPBiCGStab:  Solving for p_rgh, Initial residual = 7.452354e-07, Final residual = 7.045332e-09, No Iterations 946
time step continuity errors : sum local = 1.226377e-07, global = -3.992757e-07, cumulative = -0.3950778
DILUPBiCGStab:  Solving for p_rgh, Initial residual = 8.545409e-08, Final residual = 1.31407e-09, No Iterations 1000
time step continuity errors : sum local = 1.226389e-07, global = -3.992812e-07, cumulative = -0.3950782
smoothSolver:  Solving for epsilon, Initial residual = 0.0008395134, Final residual = 2.163365e-09, No Iterations 5
smoothSolver:  Solving for k, Initial residual = 8.442658e-05, Final residual = 5.273581e-09, No Iterations 4
ExecutionTime = 63.09 s  ClockTime = 64 s

Courant Number mean: 0.0008355082 max: 0.9991323
Interface Courant Number mean: 2.708816e-07 max: 0.002167861
deltaT = 5.744937e-06
Time = 0.000716182

PIMPLE: iteration 1
inverseDistance : detected 2 mesh regions
    zone:0 nCells:190728  voxels:(300 300 1) bb:(-0.7 -1.7 -0.1) (0.7 1.1 0.1)
    zone:1 nCells:1728  voxels:(300 300 1) bb:(-0.7 -1.7 -0.1) (0.7 1.1 0.1)
Overset analysis : nCells : 192456
    calculated   : 172976
    interpolated : 1154 (from local:0  mixed local/remote:0  remote:1154)
    hole         : 18326

Execution time for mesh.update() = 0.35 s
Mesh Courant Number mean: 4.835945e-05 max: 0.02796068
smoothSolver:  Solving for alpha.water, Initial residual = 7.111084e-07, Final residual = 1.173062e-12, No Iterations 1
Phase-1 volume fraction = 0.1023288  Min(alpha.water) = -1.636717e-55  Max(alpha.water) = 1
MULES: Correcting alpha.water
MULES: Correcting alpha.water
MULES: Correcting alpha.water
Phase-1 volume fraction = 0.1023288  Min(alpha.water) = -1.636717e-55  Max(alpha.water) = 1
DILUPBiCGStab:  Solving for p_rgh, Initial residual = 0.0006906765, Final residual = 6.677617e-06, No Iterations 99
time step continuity errors : sum local = 1.322617e-07, global = -4.408815e-07, cumulative = -0.3950786
DILUPBiCGStab:  Solving for p_rgh:  solution singularity
time step continuity errors : sum local = 1.321602e-07, global = -4.410519e-07, cumulative = -0.3950791
DILUPBiCGStab:  Solving for p_rgh, Initial residual = 1.347884e-06, Final residual = 5.785197e-08, No Iterations 1000
time step continuity errors : sum local = 1.321141e-07, global = -4.409342e-07, cumulative = -0.3950795
smoothSolver:  Solving for epsilon, Initial residual = 0.01466789, Final residual = 8.927155e-09, No Iterations 6
smoothSolver:  Solving for k, Initial residual = 0.007668067, Final residual = 9.786331e-09, No Iterations 6
PIMPLE: iteration 2
smoothSolver:  Solving for alpha.water, Initial residual = 1.796596e-07, Final residual = 4.311107e-13, No Iterations 1
Phase-1 volume fraction = 0.1023288  Min(alpha.water) = -1.636711e-55  Max(alpha.water) = 1
MULES: Correcting alpha.water
MULES: Correcting alpha.water
MULES: Correcting alpha.water
Phase-1 volume fraction = 0.1023288  Min(alpha.water) = -1.636711e-55  Max(alpha.water) = 1
DILUPBiCGStab:  Solving for p_rgh, Initial residual = 1.633599e-05, Final residual = 1.565368e-07, No Iterations 122
time step continuity errors : sum local = 1.330574e-07, global = -4.452406e-07, cumulative = -0.39508
DILUPBiCGStab:  Solving for p_rgh, Initial residual = 7.188165e-07, Final residual = 3.100695e-08, No Iterations 1000
time step continuity errors : sum local = 1.330783e-07, global = -4.453481e-07, cumulative = -0.3950804
DILUPBiCGStab:  Solving for p_rgh, Initial residual = 1.093564e-07, Final residual = 9.906203e-11, No Iterations 593
time step continuity errors : sum local = 1.330767e-07, global = -4.453457e-07, cumulative = -0.3950809
smoothSolver:  Solving for epsilon, Initial residual = 0.000778136, Final residual = 2.023582e-09, No Iterations 5
[...]
[Coastal-song:28093] [ 9] /home/song/OpenFOAM/OpenFOAM-v2406/platforms/linux64GccDPInt32Opt/lib/liboverset.so(_ZNK4Foam20dynamicOversetFvMesh5solveERNS_8fvMatrixIdEERKNS_10dictionaryE+0x24)[0x7fac21a90a14]
[Coastal-song:28093] [10] /home/song/OpenFOAM/OpenFOAM-v2406/platforms/linux64GccDPInt32Opt/lib/liboverset.so(_ZNK4Foam17oversetFvMeshBase12solveOversetIdEENS_17SolverPerformanceIT_EERNS_8fvMatrixIS3_EERKNS_10dictionaryE+0x334)[0x7f9ff51bcfb4]
[Coastal-song:28155] [ 9] /home/song/OpenFOAM/OpenFOAM-v2406/platforms/linux64GccDPInt32Opt/lib/liboverset.so(_ZNK4Foam20dynamicOversetFvMesh5solveERNS_8fvMatrixIdEERKNS_10dictionaryE+0x24)[0x7f9ff51bda14]
[Coastal-song:28155] [10] overInterDyMFoam(+0x52152)[0x55ae97452152]
[Coastal-song:28155] [11] /lib/x86_64-linux-gnu/libc.so.6(__libc_start_main+0xe7)[0x7f9ff2c15c87]
[Coastal-song:28155] [12] overInterDyMFoam(+0x58bea)[0x55ae97458bea]
[Coastal-song:28155] *** End of error message ***
overInterDyMFoam(+0x52152)[0x564bfa052152]
[Coastal-song:28093] [11] /lib/x86_64-linux-gnu/libc.so.6(__libc_start_main+0xe7)[0x7fac1f4e8c87]
[Coastal-song:28093] [12] overInterDyMFoam(+0x58bea)[0x564bfa058bea]
[Coastal-song:28093] *** End of error message ***
/home/song/OpenFOAM/OpenFOAM-v2406/platforms/linux64GccDPInt32Opt/lib/libfiniteVolume.so(_ZNK4Foam6fvMesh5solveERNS_8fvMatrixIdEERKNS_10dictionaryE+0x23)[0x7f4a2c1e3f63]
[Coastal-song:28156] [ 8] /home/song/OpenFOAM/OpenFOAM-v2406/platforms/linux64GccDPInt32Opt/lib/liboverset.so(_ZNK4Foam17oversetFvMeshBase12solveOversetIdEENS_17SolverPerformanceIT_EERNS_8fvMatrixIS3_EERKNS_10dictionaryE+0x334)[0x7f4a28768fb4]
[Coastal-song:28156] [ 9] /home/song/OpenFOAM/OpenFOAM-v2406/platforms/linux64GccDPInt32Opt/lib/liboverset.so(_ZNK4Foam20dynamicOversetFvMesh5solveERNS_8fvMatrixIdEERKNS_10dictionaryE+0x24)[0x7f4a28769a14]
[Coastal-song:28156] [10] overInterDyMFoam(+0x52152)[0x55afe2652152]
[Coastal-song:28156] [11] /lib/x86_64-linux-gnu/libc.so.6(__libc_start_main+0xe7)[0x7f4a261c1c87]
[Coastal-song:28156] [12] overInterDyMFoam(+0x58bea)[0x55afe2658bea]
[Coastal-song:28156] *** End of error message ***
[Coastal-song:28083] *** Process received signal ***
[Coastal-song:28083] Signal: Floating point exception (8)
[Coastal-song:28083] Signal code:  (-6)
[Coastal-song:28083] Failing at address: 0x3e800006db3
[Coastal-song:28083] [ 0] /lib/x86_64-linux-gnu/libpthread.so.0(+0x12980)[0x7f7357011980]
[Coastal-song:28083] [ 1] /lib/x86_64-linux-gnu/libpthread.so.0(raise+0xc7)[0x7f7357011817]
[Coastal-song:28083] [ 2] /lib/x86_64-linux-gnu/libpthread.so.0(+0x12980)[0x7f7357011980]
[Coastal-song:28083] [ 3] /home/song/OpenFOAM/OpenFOAM-v2406/platforms/linux64GccDPInt32Opt/lib/libOpenFOAM.so(_ZNK4Foam9PBiCGStab11scalarSolveERNS_5FieldIdEERKS2_h+0xf57)[0x7f735858d767]
[Coastal-song:28083] [ 4] /home/song/OpenFOAM/OpenFOAM-v2406/platforms/linux64GccDPInt32Opt/lib/libOpenFOAM.so(_ZNK4Foam9PBiCGStab5solveERNS_5FieldIdEERKS2_h+0x5a)[0x7f735858f20a]
[Coastal-song:28083] [ 5] /home/song/OpenFOAM/OpenFOAM-v2406/platforms/linux64GccDPInt32Opt/lib/libfiniteVolume.so(_ZN4Foam8fvMatrixIdE15solveSegregatedERKNS_10dictionaryE+0x611)[0x7f735d440ca1]
[Coastal-song:28083] [ 6] /home/song/OpenFOAM/OpenFOAM-v2406/platforms/linux64GccDPInt32Opt/lib/libfiniteVolume.so(_ZN4Foam8fvMatrixIdE24solveSegregatedOrCoupledERKNS_10dictionaryE+0x2ce)[0x7f735ccca72e]
[Coastal-song:28083] [ 7] [Coastal-song:28082] *** Process received signal ***
[Coastal-song:28082] Signal: Floating point exception (8)
[Coastal-song:28082] Signal code:  (-6)
[Coastal-song:28082] Failing at address: 0x3e800006db2
[Coastal-song:28082] [ 0] /lib/x86_64-linux-gnu/libpthread.so.0(+0x12980)[0x7f847caca980]
[Coastal-song:28082] [ 1] /lib/x86_64-linux-gnu/libpthread.so.0(raise+0xc7)[0x7f847caca817]
[Coastal-song:28082] [ 2] /lib/x86_64-linux-gnu/libpthread.so.0(+0x12980)[0x7f847caca980]
[Coastal-song:28082] [ 3] /home/song/OpenFOAM/OpenFOAM-v2406/platforms/linux64GccDPInt32Opt/lib/libfiniteVolume.so(_ZNK4Foam6fvMesh5solveERNS_8fvMatrixIdEERKNS_10dictionaryE+0x23)[0x7f735cc51f63]
[Coastal-song:28083] [ 8] /home/song/OpenFOAM/OpenFOAM-v2406/platforms/linux64GccDPInt32Opt/lib/liboverset.so(_ZNK4Foam17oversetFvMeshBase12solveOversetIdEENS_17SolverPerformanceIT_EERNS_8fvMatrixIS3_EERKNS_10dictionaryE+0x334)[0x7f73591d6fb4]
[Coastal-song:28083] [ 9] /home/song/OpenFOAM/OpenFOAM-v2406/platforms/linux64GccDPInt32Opt/lib/liboverset.so(_ZNK4Foam20dynamicOversetFvMesh5solveERNS_8fvMatrixIdEERKNS_10dictionaryE+0x24)[0x7f73591d7a14]
[Coastal-song:28083] [10] overInterDyMFoam(+0x52152)[0x55900f852152]
[Coastal-song:28083] /home/song/OpenFOAM/OpenFOAM-v2406/platforms/linux64GccDPInt32Opt/lib/libOpenFOAM.so(_ZNK4Foam9PBiCGStab11scalarSolveERNS_5FieldIdEERKS2_h+0xf57)[0x7f847e046767]
[Coastal-song:28082] [ 4] [11] /lib/x86_64-linux-gnu/libc.so.6(__libc_start_main+0xe7)[0x7f7356c2fc87]
[Coastal-song:28083] [12] overInterDyMFoam(+0x58bea)[0x55900f858bea]
[Coastal-song:28083] *** End of error message ***
/home/song/OpenFOAM/OpenFOAM-v2406/platforms/linux64GccDPInt32Opt/lib/libOpenFOAM.so(_ZNK4Foam9PBiCGStab5solveERNS_5FieldIdEERKS2_h+0x5a)[0x7f847e04820a]
[Coastal-song:28082] [ 5] /home/song/OpenFOAM/OpenFOAM-v2406/platforms/linux64GccDPInt32Opt/lib/libfiniteVolume.so(_ZN4Foam8fvMatrixIdE15solveSegregatedERKNS_10dictionaryE+0x611)[0x7f8482ef9ca1]
[Coastal-song:28082] [ 6] /home/song/OpenFOAM/OpenFOAM-v2406/platforms/linux64GccDPInt32Opt/lib/libfiniteVolume.so(_ZN4Foam8fvMatrixIdE24solveSegregatedOrCoupledERKNS_10dictionaryE+0x2ce)[0x7f848278372e]
[Coastal-song:28082] [ 7] /home/song/OpenFOAM/OpenFOAM-v2406/platforms/linux64GccDPInt32Opt/lib/libfiniteVolume.so(_ZNK4Foam6fvMesh5solveERNS_8fvMatrixIdEERKNS_10dictionaryE+0x23)[0x7f848270af63]
[Coastal-song:28082] [ 8] /home/song/OpenFOAM/OpenFOAM-v2406/platforms/linux64GccDPInt32Opt/lib/liboverset.so(_ZNK4Foam17oversetFvMeshBase12solveOversetIdEENS_17SolverPerformanceIT_EERNS_8fvMatrixIS3_EERKNS_10dictionaryE+0x334)[0x7f847ec8ffb4]
[Coastal-song:28082] [ 9] /home/song/OpenFOAM/OpenFOAM-v2406/platforms/linux64GccDPInt32Opt/lib/liboverset.so(_ZNK4Foam20dynamicOversetFvMesh5solveERNS_8fvMatrixIdEERKNS_10dictionaryE+0x24)[0x7f847ec90a14]
[Coastal-song:28082] [10] overInterDyMFoam(+0x52152)[0x55c247052152]
[Coastal-song:28082] [11] /lib/x86_64-linux-gnu/libc.so.6(__libc_start_main+0xe7)[0x7f847c6e8c87]
[Coastal-song:28082] [12] overInterDyMFoam(+0x58bea)[0x55c247058bea]
[Coastal-song:28082] *** End of error message ***
[Coastal-song:28121] *** Process received signal ***
[Coastal-song:28121] Signal: Floating point exception (8)
[Coastal-song:28121] Signal code:  (-6)
[Coastal-song:28121] Failing at address: 0x3e800006dd9
[Coastal-song:28121] [ 0] /lib/x86_64-linux-gnu/libpthread.so.0(+0x12980)[0x7fa1edaf1980]
[Coastal-song:28121] [ 1] /lib/x86_64-linux-gnu/libpthread.so.0(raise+0xc7)[0x7fa1edaf1817]
[Coastal-song:28121] [ 2] /lib/x86_64-linux-gnu/libpthread.so.0(+0x12980)[0x7fa1edaf1980]
[Coastal-song:28121] [ 3] /home/song/OpenFOAM/OpenFOAM-v2406/platforms/linux64GccDPInt32Opt/lib/libOpenFOAM.so(_ZNK4Foam9PBiCGStab11scalarSolveERNS_5FieldIdEERKS2_h+0xf57)[0x7fa1ef06d767]
[Coastal-song:28121] [ 4] /home/song/OpenFOAM/OpenFOAM-v2406/platforms/linux64GccDPInt32Opt/lib/libOpenFOAM.so(_ZNK4Foam9PBiCGStab5solveERNS_5FieldIdEERKS2_h+0x5a)[0x7fa1ef06f20a]
[Coastal-song:28121] [ 5] /home/song/OpenFOAM/OpenFOAM-v2406/platforms/linux64GccDPInt32Opt/lib/libfiniteVolume.so(_ZN4Foam8fvMatrixIdE15solveSegregatedERKNS_10dictionaryE+0x611)[0x7fa1f3f20ca1]
[Coastal-song:28121] [ 6] [Coastal-song:28154] *** Process received signal ***
[Coastal-song:28124] *** Process received signal ***
[Coastal-song:28124] Signal: Floating point exception (8)
[Coastal-song:28124] Signal code:  (-6)
[Coastal-song:28124] Failing at address: 0x3e800006ddc
[Coastal-song:28124] [ 0] /home/song/OpenFOAM/OpenFOAM-v2406/platforms/linux64GccDPInt32Opt/lib/libfiniteVolume.so(_ZN4Foam8fvMatrixIdE24solveSegregatedOrCoupledERKNS_10dictionaryE+0x2ce)[0x7fa1f37aa72e]
[Coastal-song:28121] [ 7] [Coastal-song:28154] Signal: Floating point exception (8)
[Coastal-song:28154] Signal code:  (-6)
[Coastal-song:28154] Failing at address: 0x3e800006dfa
[Coastal-song:28154] [ 0] /lib/x86_64-linux-gnu/libpthread.so.0(+0x12980)[0x7fe121e90980]
[Coastal-song:28154] [ 1] /lib/x86_64-linux-gnu/libpthread.so.0(raise+0xc7)[0x7fe121e90817]
[Coastal-song:28154] [ 2] /lib/x86_64-linux-gnu/libpthread.so.0(+0x12980)[0x7fe121e90980]
[Coastal-song:28154] [ 3] /lib/x86_64-linux-gnu/libpthread.so.0(+0x12980)[0x7fc60e775980]
[Coastal-song:28124] [ 1] /lib/x86_64-linux-gnu/libpthread.so.0(raise+0xc7)[0x7fc60e775817]
[Coastal-song:28124] [ 2] /lib/x86_64-linux-gnu/libpthread.so.0(+0x12980)[0x7fc60e775980]
[Coastal-song:28124] [ 3] /home/song/OpenFOAM/OpenFOAM-v2406/platforms/linux64GccDPInt32Opt/lib/libOpenFOAM.so(_ZNK4Foam9PBiCGStab11scalarSolveERNS_5FieldIdEERKS2_h+0xf57)[0x7fe12340c767]
[Coastal-song:28154] [ 4] /home/song/OpenFOAM/OpenFOAM-v2406/platforms/linux64GccDPInt32Opt/lib/libfiniteVolume.so(_ZNK4Foam6fvMesh5solveERNS_8fvMatrixIdEERKNS_10dictionaryE+0x23)[0x7fa1f3731f63]
[Coastal-song:28121] [ 8] /home/song/OpenFOAM/OpenFOAM-v2406/platforms/linux64GccDPInt32Opt/lib/libOpenFOAM.so(_ZNK4Foam9PBiCGStab11scalarSolveERNS_5FieldIdEERKS2_h+0xf57)[0x7fc60fcf1767]
[Coastal-song:28124] [ 4] /home/song/OpenFOAM/OpenFOAM-v2406/platforms/linux64GccDPInt32Opt/lib/liboverset.so(_ZNK4Foam17oversetFvMeshBase12solveOversetIdEENS_17SolverPerformanceIT_EERNS_8fvMatrixIS3_EERKNS_10dictionaryE+0x334)[0x7fa1efcb6fb4]
[Coastal-song:28121] [ 9] /home/song/OpenFOAM/OpenFOAM-v2406/platforms/linux64GccDPInt32Opt/lib/libOpenFOAM.so(_ZNK4Foam9PBiCGStab5solveERNS_5FieldIdEERKS2_h+0x5a)[0x7fe12340e20a]
[Coastal-song:28154] [ 5] /home/song/OpenFOAM/OpenFOAM-v2406/platforms/linux64GccDPInt32Opt/lib/liboverset.so(_ZNK4Foam20dynamicOversetFvMesh5solveERNS_8fvMatrixIdEERKNS_10dictionaryE+0x24)[0x7fa1efcb7a14]
[Coastal-song:28121] [10] overInterDyMFoam(+0x52152)[0x55dcdea52152]
[Coastal-song:28121] [11] /lib/x86_64-linux-gnu/libc.so.6(__libc_start_main+0xe7)[0x7fa1ed70fc87]
[Coastal-song:28121] [12] overInterDyMFoam(+0x58bea)[0x55dcdea58bea]
[Coastal-song:28121] *** End of error message ***
/home/song/OpenFOAM/OpenFOAM-v2406/platforms/linux64GccDPInt32Opt/lib/libOpenFOAM.so(_ZNK4Foam9PBiCGStab5solveERNS_5FieldIdEERKS2_h+0x5a)[0x7fc60fcf320a]
[Coastal-song:28124] [ 5] /home/song/OpenFOAM/OpenFOAM-v2406/platforms/linux64GccDPInt32Opt/lib/libfiniteVolume.so(_ZN4Foam8fvMatrixIdE15solveSegregatedERKNS_10dictionaryE+0x611)[0x7fe1282bfca1]
[Coastal-song:28154] [ 6] /home/song/OpenFOAM/OpenFOAM-v2406/platforms/linux64GccDPInt32Opt/lib/libfiniteVolume.so(_ZN4Foam8fvMatrixIdE15solveSegregatedERKNS_10dictionaryE+0x611)[0x7fc614ba4ca1]
[Coastal-song:28124] [ 6] [Coastal-song:28092] *** Process received signal ***
[Coastal-song:28092] Signal: Floating point exception (8)
[Coastal-song:28092] Signal code:  (-6)
[Coastal-song:28092] Failing at address: 0x3e800006dbc
[Coastal-song:28092] [ 0] /lib/x86_64-linux-gnu/libpthread.so.0(+0x12980)[0x7f9080573980]
[Coastal-song:28092] [ 1] /lib/x86_64-linux-gnu/libpthread.so.0(raise+0xc7)[0x7f9080573817]
[Coastal-song:28092] [ 2] /lib/x86_64-linux-gnu/libpthread.so.0(+0x12980)[0x7f9080573980]
[Coastal-song:28092] [ 3] /home/song/OpenFOAM/OpenFOAM-v2406/platforms/linux64GccDPInt32Opt/lib/libfiniteVolume.so(_ZN4Foam8fvMatrixIdE24solveSegregatedOrCoupledERKNS_10dictionaryE+0x2ce)[0x7fe127b4972e]
[Coastal-song:28154] [ 7] [Coastal-song:28119] *** Process received signal ***
[Coastal-song:28119] Signal: Floating point exception (8)
[Coastal-song:28119] Signal code:  (-6)
[Coastal-song:28119] Failing at address: 0x3e800006dd7
[Coastal-song:28119] [ 0] /home/song/OpenFOAM/OpenFOAM-v2406/platforms/linux64GccDPInt32Opt/lib/libfiniteVolume.so(_ZN4Foam8fvMatrixIdE24solveSegregatedOrCoupledERKNS_10dictionaryE+0x2ce)[0x7fc61442e72e]
[Coastal-song:28124] [ 7] /home/song/OpenFOAM/OpenFOAM-v2406/platforms/linux64GccDPInt32Opt/lib/libfiniteVolume.so(_ZNK4Foam6fvMesh5solveERNS_8fvMatrixIdEERKNS_10dictionaryE+0x23)[0x7fe127ad0f63]
[Coastal-song:28154] [ 8] /home/song/OpenFOAM/OpenFOAM-v2406/platforms/linux64GccDPInt32Opt/lib/liboverset.so(_ZNK4Foam17oversetFvMeshBase12solveOversetIdEENS_17SolverPerformanceIT_EERNS_8fvMatrixIS3_EERKNS_10dictionaryE+0x334)[0x7fe124055fb4]
[Coastal-song:28154] [ 9] /lib/x86_64-linux-gnu/libpthread.so.0(+0x12980)[0x7f8f19c8d980]
[Coastal-song:28119] [ 1] /lib/x86_64-linux-gnu/libpthread.so.0(raise+0xc7)[0x7f8f19c8d817]
[Coastal-song:28119] [ 2] /lib/x86_64-linux-gnu/libpthread.so.0(+0x12980)[0x7f8f19c8d980]
[Coastal-song:28119] [ 3] /home/song/OpenFOAM/OpenFOAM-v2406/platforms/linux64GccDPInt32Opt/lib/libOpenFOAM.so(_ZNK4Foam9PBiCGStab11scalarSolveERNS_5FieldIdEERKS2_h+0xf57)[0x7f9081aef767]
[Coastal-song:28092] [ 4] /home/song/OpenFOAM/OpenFOAM-v2406/platforms/linux64GccDPInt32Opt/lib/libfiniteVolume.so(_ZNK4Foam6fvMesh5solveERNS_8fvMatrixIdEERKNS_10dictionaryE+0x23)[0x7fc6143b5f63]
[Coastal-song:28124] [ 8] /home/song/OpenFOAM/OpenFOAM-v2406/platforms/linux64GccDPInt32Opt/lib/liboverset.so(_ZNK4Foam20dynamicOversetFvMesh5solveERNS_8fvMatrixIdEERKNS_10dictionaryE+0x24)[0x7fe124056a14]
[Coastal-song:28154] [10] overInterDyMFoam(+0x52152)[0x55d14aa52152]
[Coastal-song:28154] [11] /lib/x86_64-linux-gnu/libc.so.6(__libc_start_main+0xe7)[0x7fe121aaec87]
[Coastal-song:28154] [12] overInterDyMFoam(+0x58bea)[0x55d14aa58bea]
[Coastal-song:28154] *** End of error message ***
/home/song/OpenFOAM/OpenFOAM-v2406/platforms/linux64GccDPInt32Opt/lib/libOpenFOAM.so(_ZNK4Foam9PBiCGStab11scalarSolveERNS_5FieldIdEERKS2_h+0xf57)[0x7f8f1b209767]
[Coastal-song:28119] [ 4] /home/song/OpenFOAM/OpenFOAM-v2406/platforms/linux64GccDPInt32Opt/lib/liboverset.so(_ZNK4Foam17oversetFvMeshBase12solveOversetIdEENS_17SolverPerformanceIT_EERNS_8fvMatrixIS3_EERKNS_10dictionaryE+0x334)[0x7fc61093afb4]
[Coastal-song:28124] [ 9] /home/song/OpenFOAM/OpenFOAM-v2406/platforms/linux64GccDPInt32Opt/lib/liboverset.so(_ZNK4Foam20dynamicOversetFvMesh5solveERNS_8fvMatrixIdEERKNS_10dictionaryE+0x24)[0x7fc61093ba14]
[Coastal-song:28124] [10] overInterDyMFoam(+0x52152)[0x557710e52152]
[Coastal-song:28124] [11] /lib/x86_64-linux-gnu/libc.so.6(__libc_start_main+0xe7)[0x7fc60e393c87]
[Coastal-song:28124] [12] /home/song/OpenFOAM/OpenFOAM-v2406/platforms/linux64GccDPInt32Opt/lib/libOpenFOAM.so(_ZNK4Foam9PBiCGStab5solveERNS_5FieldIdEERKS2_h+0x5a)[0x7f9081af120a]
[Coastal-song:28092] [ 5] overInterDyMFoam(+0x58bea)[0x557710e58bea]
[Coastal-song:28124] *** End of error message ***
/home/song/OpenFOAM/OpenFOAM-v2406/platforms/linux64GccDPInt32Opt/lib/libOpenFOAM.so(_ZNK4Foam9PBiCGStab5solveERNS_5FieldIdEERKS2_h+0x5a)[0x7f8f1b20b20a]
[Coastal-song:28119] [ 5] /home/song/OpenFOAM/OpenFOAM-v2406/platforms/linux64GccDPInt32Opt/lib/libfiniteVolume.so(_ZN4Foam8fvMatrixIdE15solveSegregatedERKNS_10dictionaryE+0x611)[0x7f90869a2ca1]
[Coastal-song:28092] [ 6] /home/song/OpenFOAM/OpenFOAM-v2406/platforms/linux64GccDPInt32Opt/lib/libfiniteVolume.so(_ZN4Foam8fvMatrixIdE15solveSegregatedERKNS_10dictionaryE+0x611)[0x7f8f200bcca1]
[Coastal-song:28119] [ 6] /home/song/OpenFOAM/OpenFOAM-v2406/platforms/linux64GccDPInt32Opt/lib/libfiniteVolume.so(_ZN4Foam8fvMatrixIdE24solveSegregatedOrCoupledERKNS_10dictionaryE+0x2ce)[0x7f908622c72e]
[Coastal-song:28092] [ 7] /home/song/OpenFOAM/OpenFOAM-v2406/platforms/linux64GccDPInt32Opt/lib/libfiniteVolume.so(_ZN4Foam8fvMatrixIdE24solveSegregatedOrCoupledERKNS_10dictionaryE+0x2ce)[0x7f8f1f94672e]
[Coastal-song:28119] [ 7] /home/song/OpenFOAM/OpenFOAM-v2406/platforms/linux64GccDPInt32Opt/lib/libfiniteVolume.so(_ZNK4Foam6fvMesh5solveERNS_8fvMatrixIdEERKNS_10dictionaryE+0x23)[0x7f90861b3f63]
[Coastal-song:28092] [ 8] /home/song/OpenFOAM/OpenFOAM-v2406/platforms/linux64GccDPInt32Opt/lib/liboverset.so(_ZNK4Foam17oversetFvMeshBase12solveOversetIdEENS_17SolverPerformanceIT_EERNS_8fvMatrixIS3_EERKNS_10dictionaryE+0x334)[0x7f9082738fb4]
[Coastal-song:28092] [ 9] /home/song/OpenFOAM/OpenFOAM-v2406/platforms/linux64GccDPInt32Opt/lib/liboverset.so(_ZNK4Foam20dynamicOversetFvMesh5solveERNS_8fvMatrixIdEERKNS_10dictionaryE+0x24)[0x7f9082739a14]
[Coastal-song:28092] /home/song/OpenFOAM/OpenFOAM-v2406/platforms/linux64GccDPInt32Opt/lib/libfiniteVolume.so(_ZNK4Foam6fvMesh5solveERNS_8fvMatrixIdEERKNS_10dictionaryE+0x23)[0x7f8f1f8cdf63]
[Coastal-song:28119] [ 8] /home/song/OpenFOAM/OpenFOAM-v2406/platforms/linux64GccDPInt32Opt/lib/liboverset.so(_ZNK4Foam17oversetFvMeshBase12solveOversetIdEENS_17SolverPerformanceIT_EERNS_8fvMatrixIS3_EERKNS_10dictionaryE+0x334)[0x7f8f1be52fb4]
[Coastal-song:28119] [10] overInterDyMFoam(+0x52152)[0x55c869052152]
[Coastal-song:28092] [11] /lib/x86_64-linux-gnu/libc.so.6(__libc_start_main+0xe7)[0x7f9080191c87]
[Coastal-song:28092] [ 9] /home/song/OpenFOAM/OpenFOAM-v2406/platforms/linux64GccDPInt32Opt/lib/liboverset.so(_ZNK4Foam20dynamicOversetFvMesh5solveERNS_8fvMatrixIdEERKNS_10dictionaryE+0x24)[0x7f8f1be53a14]
[Coastal-song:28119] [10] [12] overInterDyMFoam(+0x58bea)[0x55c869058bea]
[Coastal-song:28092] *** End of error message ***
overInterDyMFoam(+0x52152)[0x55978f252152]
[Coastal-song:28119] [11] /lib/x86_64-linux-gnu/libc.so.6(__libc_start_main+0xe7)[0x7f8f198abc87]
[Coastal-song:28119] [12] overInterDyMFoam(+0x58bea)[0x55978f258bea]
[Coastal-song:28119] *** End of error message ***
[Coastal-song:28089] *** Process received signal ***
[Coastal-song:28089] Signal: Floating point exception (8)
[Coastal-song:28089] Signal code:  (-6)
[Coastal-song:28089] Failing at address: 0x3e800006db9
[Coastal-song:28089] [ 0] /lib/x86_64-linux-gnu/libpthread.so.0(+0x12980)[0x7f87cf661980]
[Coastal-song:28089] [ 1] /lib/x86_64-linux-gnu/libpthread.so.0(raise+0xc7)[0x7f87cf661817]
[Coastal-song:28089] [ 2] /lib/x86_64-linux-gnu/libpthread.so.0(+0x12980)[0x7f87cf661980]
[Coastal-song:28089] [ 3] /home/song/OpenFOAM/OpenFOAM-v2406/platforms/linux64GccDPInt32Opt/lib/libOpenFOAM.so(_ZNK4Foam9PBiCGStab11scalarSolveERNS_5FieldIdEERKS2_h+0xf57)[0x7f87d0bdd767]
[Coastal-song:28089] [ 4] /home/song/OpenFOAM/OpenFOAM-v2406/platforms/linux64GccDPInt32Opt/lib/libOpenFOAM.so(_ZNK4Foam9PBiCGStab5solveERNS_5FieldIdEERKS2_h+0x5a)[0x7f87d0bdf20a]
[Coastal-song:28089] [ 5] /home/song/OpenFOAM/OpenFOAM-v2406/platforms/linux64GccDPInt32Opt/lib/libfiniteVolume.so(_ZN4Foam8fvMatrixIdE15solveSegregatedERKNS_10dictionaryE+0x611)[0x7f87d5a90ca1]
[Coastal-song:28089] [ 6] /home/song/OpenFOAM/OpenFOAM-v2406/platforms/linux64GccDPInt32Opt/lib/libfiniteVolume.so(_ZN4Foam8fvMatrixIdE24solveSegregatedOrCoupledERKNS_10dictionaryE+0x2ce)[0x7f87d531a72e]
[Coastal-song:28089] [ 7] /home/song/OpenFOAM/OpenFOAM-v2406/platforms/linux64GccDPInt32Opt/lib/libfiniteVolume.so(_ZNK4Foam6fvMesh5solveERNS_8fvMatrixIdEERKNS_10dictionaryE+0x23)[0x7f87d52a1f63]
[Coastal-song:28089] [ 8] /home/song/OpenFOAM/OpenFOAM-v2406/platforms/linux64GccDPInt32Opt/lib/liboverset.so(_ZNK4Foam17oversetFvMeshBase12solveOversetIdEENS_17SolverPerformanceIT_EERNS_8fvMatrixIS3_EERKNS_10dictionaryE+0x334)[0x7f87d1826fb4]
[Coastal-song:28089] [ 9] /home/song/OpenFOAM/OpenFOAM-v2406/platforms/linux64GccDPInt32Opt/lib/liboverset.so(_ZNK4Foam20dynamicOversetFvMesh5solveERNS_8fvMatrixIdEERKNS_10dictionaryE+0x24)[0x7f87d1827a14]
[Coastal-song:28089] [10] overInterDyMFoam(+0x52152)[0x56135cc52152]
[Coastal-song:28089] [11] /lib/x86_64-linux-gnu/libc.so.6(__libc_start_main+0xe7)[0x7f87cf27fc87]
[Coastal-song:28089] [12] overInterDyMFoam(+0x58bea)[0x56135cc58bea]
[Coastal-song:28089] *** End of error message ***
--------------------------------------------------------------------------
mpirun noticed that process rank 23 with PID 0 on node Coastal-song exited on signal 8 (Floating point exception).
--------------------------------------------------------------------------
