/*---------------------------------------------------------------------------*\
| =========                 |                                                 |
| \\      /  F ield         | OpenFOAM: The Open Source CFD Toolbox           |
|  \\    /   O peration     | Version:  2406                                  |
|   \\  /    A nd           | Website:  www.openfoam.com                      |
|    \\/     M anipulation  |                                                 |
\*---------------------------------------------------------------------------*/
Build  : 630d60de3b-20240620 OPENFOAM=2406 version=v2406
Arch   : "LSB;label=32;scalar=64"
Exec   : topoSet -dict system/topoSetDict.2
Date   : Mar 19 2025
Time   : 20:55:23
Host   : Coastal-song
PID    : 27943
I/O    : uncollated
Case   : /home/song/OpenFOAM/song-v2406/run/volcanicTsunamiGenerator2D_1/background
nProcs : 1
trapFpe: Floating point exception trapping enabled (FOAM_SIGFPE).
fileModificationChecking : Monitoring run-time modified files using timeStampMaster (fileModificationSkew 5, maxFileModificationPolls 20)
allowSystemOperations : Allowing user-supplied system call operations

// * * * * * * * * * * * * * * * * * * * * * * * * * * * * * * * * * * * * * //
Create time

Create polyMesh for time = 0

Reading topoSetDict.2

Time = 0
    mesh not changed.
Created cellSet a0
    Applying source boxToCell
    Adding cells with centre within boxes 1((-1 -40 -0.2) (1 40 0.2))
    cellSet a0 now size 142728

End

