/*---------------------------------------------------------------------------*\
| =========                 |                                                 |
| \\      /  F ield         | OpenFOAM: The Open Source CFD Toolbox           |
|  \\    /   O peration     | Version:  2406                                  |
|   \\  /    A nd           | Website:  www.openfoam.com                      |
|    \\/     M anipulation  |                                                 |
\*---------------------------------------------------------------------------*/
Build  : 630d60de3b-20240620 OPENFOAM=2406 version=v2406
Arch   : "LSB;label=32;scalar=64"
Exec   : refineMesh -dict system/refineMeshDict1 -overwrite
Date   : Mar 19 2025
Time   : 22:33:58
Host   : Coastal-song
PID    : 835
I/O    : uncollated
Case   : /home/song/OpenFOAM/song-v2406/run/volcanicTsunamiGenerator2D_1/background
nProcs : 1
trapFpe: Floating point exception trapping enabled (FOAM_SIGFPE).
fileModificationChecking : Monitoring run-time modified files using timeStampMaster (fileModificationSkew 5, maxFileModificationPolls 20)
allowSystemOperations : Allowing user-supplied system call operations

// * * * * * * * * * * * * * * * * * * * * * * * * * * * * * * * * * * * * * //
Create time

Create polyMesh for time = 0

Mesh edge statistics:
    x aligned :  number:382012	minLen:0.0125	maxLen:0.05
    y aligned :  number:384120	minLen:0.0125	maxLen:0.05
    z aligned :  number:192339	minLen:0.002	maxLen:0.002
    other     :  number:0	minLen:1e+15	maxLen:-1e+15

