/*---------------------------------------------------------------------------*\
| =========                 |                                                 |
| \\      /  F ield         | OpenFOAM: The Open Source CFD Toolbox           |
|  \\    /   O peration     | Version:  2412                                  |
|   \\  /    A nd           | Website:  www.openfoam.com                      |
|    \\/     M anipulation  |                                                 |
\*---------------------------------------------------------------------------*/
Build  : b7ce6bf69d-20250319 OPENFOAM=2412 version=v2412
Arch   : "LSB;label=32;scalar=64"
Exec   : refineMesh -dict system/refineMeshDict1 -overwrite
Date   : Apr 15 2025
Time   : 13:31:36
Host   : DESKTOP-AGOA90S
PID    : 274393
I/O    : uncollated
Case   : /home/song/OpenFOAM/song-v2412/run/volcanicTsunamiGenerator2D/background
nProcs : 1
trapFpe: Floating point exception trapping enabled (FOAM_SIGFPE).
fileModificationChecking : Monitoring run-time modified files using timeStampMaster (fileModificationSkew 5, maxFileModificationPolls 20)
allowSystemOperations : Allowing user-supplied system call operations

// * * * * * * * * * * * * * * * * * * * * * * * * * * * * * * * * * * * * * //
Create time

Create polyMesh for time = 0

Mesh edge statistics:
    x aligned :  number:704036	minLen:0.0125	maxLen:0.025
    y aligned :  number:705794	minLen:0.0125	maxLen:0.025
    z aligned :  number:353352	minLen:0.002	maxLen:0.002
    other     :  number:0	minLen:1e+15	maxLen:-1e+15

