/*---------------------------------------------------------------------------*\
| =========                 |                                                 |
| \\      /  F ield         | OpenFOAM: The Open Source CFD Toolbox           |
|  \\    /   O peration     | Version:  2406                                  |
|   \\  /    A nd           | Website:  www.openfoam.com                      |
|    \\/     M anipulation  |                                                 |
\*---------------------------------------------------------------------------*/
Build  : 630d60de3b-20240620 OPENFOAM=2406 version=v2406
Arch   : "LSB;label=32;scalar=64"
Exec   : overInterDyMFoam -parallel
Date   : Mar 21 2025
Time   : 15:18:36
Host   : Coastal-song
PID    : 1746
I/O    : uncollated
Case   : /home/song/OpenFOAM/song-v2406/run/volcanicTsunamiGenerator2D_1/background
nProcs : 32
Hosts  :
(
    (Coastal-song 32)
)
Pstream initialized with:
    floatTransfer      : false
    maxCommsSize       : 0
    nProcsSimpleSum    : 0
    nonBlockingExchange: 0 (tuning: 0)
    exchange algorithm : 0
    commsType          : nonBlocking
    polling iterations : 0
trapFpe: Floating point exception trapping enabled (FOAM_SIGFPE).
fileModificationChecking : Monitoring run-time modified files using timeStampMaster (fileModificationSkew 5, maxFileModificationPolls 20)
allowSystemOperations : Allowing user-supplied system call operations

// * * * * * * * * * * * * * * * * * * * * * * * * * * * * * * * * * * * * * //
Create time

Create mesh for time = 0

Selecting dynamicFvMesh dynamicOversetFvMesh
Selecting motion solver: multiSolidBodyMotionSolver
Applying motion to entire mesh
Selecting solid-body motion function tabulated6DoFMotion
Applying solid body motion tabulated6DoFMotion to 4608 points of cellZone movingZone

PIMPLE: no residual control data found. Calculations will employ 2 corrector loops

Reading field p_rgh

Reading field U

Reading/calculating face flux field phi

Creating cellMask field to block out hole cells

--> FOAM Warning : 
    From bool Foam::oversetPolyPatch::master() const
    in file oversetPolyPatch/oversetPolyPatch.C at line 145
    The master overset patch is not the first patch. Generally the first patch should be an overset patch to guarantee consistent operation.
Creating interpolatedCells field 

Reading transportProperties

Selecting incompressible transport model Newtonian
Selecting incompressible transport model Newtonian
Selecting turbulence model type RAS
Selecting RAS turbulence model kEpsilon
RAS
{
    RASModel        kEpsilon;
    turbulence      on;
    printCoeffs     on;
    Cmu             0.09;
    C1              1.44;
    C2              1.92;
    C3              0;
    sigmak          1;
    sigmaEps        1.3;
}


Reading g

Reading hRef
Calculating field g.h

No MRF models present

No finite volume options present
Reading/calculating face velocity Uf

Courant Number mean: 0 max: 0

Starting time loop

Courant Number mean: 0 max: 0
Interface Courant Number mean: 0 max: 0
deltaT = 0.0005882353
Time = 0.000588235

PIMPLE: iteration 1
inverseDistance : detected 2 mesh regions
    zone:0 nCells:347432  voxels:(312 759 1) bb:(-0.65 -1.6625 -0.1) (0.65 1.5 0.1)
    zone:1 nCells:1728  voxels:(312 759 1) bb:(-0.65 -1.6625 -0.1) (0.65 1.5 0.1)
Overset analysis : nCells : 349160
    calculated   : 329580
    interpolated : 1156 (from local:0  mixed local/remote:0  remote:1156)
    hole         : 18424

Execution time for mesh.update() = 0.69 s
Mesh Courant Number mean: 0.004917045 max: 2.839943
smoothSolver:  Solving for alpha.water, Initial residual = 7.437202e-17, Final residual = 7.437202e-17, No Iterations 0
Phase-1 volume fraction = 0.1024223  Min(alpha.water) = 0  Max(alpha.water) = 1
MULES: Correcting alpha.water
MULES: Correcting alpha.water
MULES: Correcting alpha.water
Phase-1 volume fraction = 0.1024223  Min(alpha.water) = 0  Max(alpha.water) = 1
DILUPBiCGStab:  Solving for p_rgh, Initial residual = 1, Final residual = 0.0009586816, No Iterations 334
DILUPBiCGStab:  Solving for p_rgh, Initial residual = 7.913731e-06, Final residual = 7.700144e-09, No Iterations 454
DILUPBiCGStab:  Solving for p_rgh, Initial residual = 5.823242e-07, Final residual = 5.205565e-10, No Iterations 501
time step continuity errors : sum local = 0.05492299, global = -0.1911773, cumulative = -0.1911773
DILUPBiCGStab:  Solving for p_rgh, Initial residual = 0.004890536, Final residual = 2.560262e-06, No Iterations 720
DILUPBiCGStab:  Solving for p_rgh, Initial residual = 4.722819e-06, Final residual = 2.503852e-09, No Iterations 542
DILUPBiCGStab:  Solving for p_rgh, Initial residual = 1.880827e-07, Final residual = 1.855409e-10, No Iterations 633
time step continuity errors : sum local = 0.05278635, global = -0.1837364, cumulative = -0.3749136
DILUPBiCGStab:  Solving for p_rgh, Initial residual = 0.005090234, Final residual = 5.007975e-06, No Iterations 337
DILUPBiCGStab:  Solving for p_rgh, Initial residual = 5.734383e-06, Final residual = 4.556226e-09, No Iterations 540
DILUPBiCGStab:  Solving for p_rgh, Initial residual = 4.515414e-07, Final residual = 6.063592e-11, No Iterations 495
time step continuity errors : sum local = 0.05264852, global = -0.1832555, cumulative = -0.5581691
smoothSolver:  Solving for epsilon, Initial residual = 0.3662435, Final residual = 6.081733e-09, No Iterations 15
smoothSolver:  Solving for k, Initial residual = 1, Final residual = 7.116327e-09, No Iterations 16
PIMPLE: iteration 2
smoothSolver:  Solving for alpha.water, Initial residual = 9.452671e-05, Final residual = 5.281093e-11, No Iterations 5
Phase-1 volume fraction = 0.1024223  Min(alpha.water) = 0  Max(alpha.water) = 1
MULES: Correcting alpha.water
MULES: Correcting alpha.water
MULES: Correcting alpha.water
Phase-1 volume fraction = 0.1024223  Min(alpha.water) = -8.579525e-61  Max(alpha.water) = 1
DILUPBiCGStab:  Solving for p_rgh, Initial residual = 0.004240634, Final residual = 3.760713e-06, No Iterations 373
DILUPBiCGStab:  Solving for p_rgh, Initial residual = 1.746708e-06, Final residual = 1.056607e-09, No Iterations 541
DILUPBiCGStab:  Solving for p_rgh, Initial residual = 1.912725e-07, Final residual = 1.753384e-10, No Iterations 211
time step continuity errors : sum local = 0.05627821, global = -0.3481965, cumulative = -0.9063656
DILUPBiCGStab:  Solving for p_rgh, Initial residual = 4.582634e-05, Final residual = 2.474678e-08, No Iterations 600
DILUPBiCGStab:  Solving for p_rgh, Initial residual = 9.055612e-07, Final residual = 7.002731e-10, No Iterations 453
DILUPBiCGStab:  Solving for p_rgh, Initial residual = 4.884933e-08, Final residual = 8.027085e-11, No Iterations 247
time step continuity errors : sum local = 0.02193581, global = -0.1356974, cumulative = -1.042063
DILUPBiCGStab:  Solving for p_rgh, Initial residual = 2.413277e-05, Final residual = 2.384215e-08, No Iterations 561
DILUPBiCGStab:  Solving for p_rgh, Initial residual = 1.757808e-07, Final residual = 1.388047e-10, No Iterations 401
DILUPBiCGStab:  Solving for p_rgh, Initial residual = 1.671323e-08, Final residual = 9.75569e-11, No Iterations 195
time step continuity errors : sum local = 0.01996496, global = -0.1234912, cumulative = -1.165554
smoothSolver:  Solving for epsilon, Initial residual = 0.519135, Final residual = 4.610291e-09, No Iterations 17
smoothSolver:  Solving for k, Initial residual = 0.762843, Final residual = 4.907384e-09, No Iterations 17
ExecutionTime = 11.42 s  ClockTime = 12 s

Courant Number mean: 0.09681433 max: 91.99307
Interface Courant Number mean: 3.29776e-05 max: 0.2321051
deltaT = 6.393862e-06
Time = 0.000594629

PIMPLE: iteration 1
inverseDistance : detected 2 mesh regions
    zone:0 nCells:347432  voxels:(312 759 1) bb:(-0.65 -1.6625 -0.1) (0.65 1.5 0.1)
    zone:1 nCells:1728  voxels:(312 759 1) bb:(-0.65 -1.6625 -0.1) (0.65 1.5 0.1)
Overset analysis : nCells : 349160
    calculated   : 329580
    interpolated : 1156 (from local:0  mixed local/remote:0  remote:1156)
    hole         : 18424

Execution time for mesh.update() = 0.52 s
Mesh Courant Number mean: 5.375463e-05 max: 0.03104712
smoothSolver:  Solving for alpha.water, Initial residual = 1.013811e-06, Final residual = 9.392039e-13, No Iterations 1
Phase-1 volume fraction = 0.1024223  Min(alpha.water) = -5.48083e-62  Max(alpha.water) = 1
MULES: Correcting alpha.water
MULES: Correcting alpha.water
MULES: Correcting alpha.water
Phase-1 volume fraction = 0.1024223  Min(alpha.water) = -5.48083e-62  Max(alpha.water) = 1
DILUPBiCGStab:  Solving for p_rgh, Initial residual = 0.007213524, Final residual = 6.821338e-06, No Iterations 446
DILUPBiCGStab:  Solving for p_rgh, Initial residual = 2.707789e-05, Final residual = 2.337557e-08, No Iterations 391
DILUPBiCGStab:  Solving for p_rgh, Initial residual = 8.808761e-07, Final residual = 6.311286e-10, No Iterations 320
time step continuity errors : sum local = 1.174288e-05, global = 4.382802e-05, cumulative = -1.16551
DILUPBiCGStab:  Solving for p_rgh, Initial residual = 0.04349569, Final residual = 2.764715e-05, No Iterations 487
DILUPBiCGStab:  Solving for p_rgh, Initial residual = 1.809946e-05, Final residual = 1.760479e-08, No Iterations 551
DILUPBiCGStab:  Solving for p_rgh, Initial residual = 5.254279e-07, Final residual = 5.234903e-10, No Iterations 244
time step continuity errors : sum local = 1.18779e-05, global = 4.432632e-05, cumulative = -1.165466
DILUPBiCGStab:  Solving for p_rgh, Initial residual = 0.04605453, Final residual = 1.704969e-05, No Iterations 433
DILUPBiCGStab:  Solving for p_rgh, Initial residual = 1.773768e-05, Final residual = 1.613987e-08, No Iterations 357
DILUPBiCGStab:  Solving for p_rgh, Initial residual = 3.640086e-07, Final residual = 7.055148e-11, No Iterations 454
time step continuity errors : sum local = 1.187913e-05, global = 4.433089e-05, cumulative = -1.165422
smoothSolver:  Solving for epsilon, Initial residual = 0.04175026, Final residual = 5.057987e-09, No Iterations 10
smoothSolver:  Solving for k, Initial residual = 0.02753909, Final residual = 8.615429e-09, No Iterations 9
PIMPLE: iteration 2
smoothSolver:  Solving for alpha.water, Initial residual = 2.891819e-07, Final residual = 8.797359e-12, No Iterations 2
Phase-1 volume fraction = 0.1024223  Min(alpha.water) = -5.443354e-62  Max(alpha.water) = 1
MULES: Correcting alpha.water
MULES: Correcting alpha.water
MULES: Correcting alpha.water
Phase-1 volume fraction = 0.1024223  Min(alpha.water) = -5.443354e-62  Max(alpha.water) = 1
DILUPBiCGStab:  Solving for p_rgh, Initial residual = 0.04605122, Final residual = 3.772214e-05, No Iterations 425
DILUPBiCGStab:  Solving for p_rgh, Initial residual = 1.880542e-05, Final residual = 1.482639e-08, No Iterations 417
DILUPBiCGStab:  Solving for p_rgh, Initial residual = 4.394217e-07, Final residual = 3.331194e-10, No Iterations 404
time step continuity errors : sum local = 1.196135e-05, global = 4.463524e-05, cumulative = -1.165377
DILUPBiCGStab:  Solving for p_rgh, Initial residual = 1.529748e-05, Final residual = 5.53766e-09, No Iterations 515
DILUPBiCGStab:  Solving for p_rgh, Initial residual = 3.432002e-07, Final residual = 1.287105e-10, No Iterations 465
DILUPBiCGStab:  Solving for p_rgh, Initial residual = 3.831096e-09, Final residual = 9.221701e-11, No Iterations 124
time step continuity errors : sum local = 1.186031e-05, global = 4.427342e-05, cumulative = -1.165333
DILUPBiCGStab:  Solving for p_rgh, Initial residual = 2.443173e-07, Final residual = 1.486678e-10, No Iterations 518
DILUPBiCGStab:  Solving for p_rgh, Initial residual = 6.250505e-09, Final residual = 8.10099e-11, No Iterations 84
DILUPBiCGStab:  Solving for p_rgh, Initial residual = 1.388573e-10, Final residual = 9.917472e-11, No Iterations 19
time step continuity errors : sum local = 1.185499e-05, global = 4.425399e-05, cumulative = -1.165289
smoothSolver:  Solving for epsilon, Initial residual = 0.01026226, Final residual = 1.678161e-09, No Iterations 9
smoothSolver:  Solving for k, Initial residual = 0.004413385, Final residual = 6.309935e-10, No Iterations 9
ExecutionTime = 17.84 s  ClockTime = 18 s

Courant Number mean: 0.001021649 max: 0.9835982
Interface Courant Number mean: 3.520494e-07 max: 0.002554636
deltaT = 6.499911e-06
Time = 0.000601129

PIMPLE: iteration 1
inverseDistance : detected 2 mesh regions
    zone:0 nCells:347432  voxels:(312 759 1) bb:(-0.65 -1.6625 -0.1) (0.65 1.5 0.1)
    zone:1 nCells:1728  voxels:(312 759 1) bb:(-0.65 -1.6625 -0.1) (0.65 1.5 0.1)
Overset analysis : nCells : 349160
    calculated   : 329580
    interpolated : 1156 (from local:0  mixed local/remote:0  remote:1156)
    hole         : 18424

Execution time for mesh.update() = 0.55 s
Mesh Courant Number mean: 5.465293e-05 max: 0.03156595
smoothSolver:  Solving for alpha.water, Initial residual = 1.010428e-06, Final residual = 9.937748e-13, No Iterations 1
Phase-1 volume fraction = 0.1024223  Min(alpha.water) = -5.282382e-62  Max(alpha.water) = 1
MULES: Correcting alpha.water
MULES: Correcting alpha.water
MULES: Correcting alpha.water
Phase-1 volume fraction = 0.1024223  Min(alpha.water) = -5.282382e-62  Max(alpha.water) = 1
DILUPBiCGStab:  Solving for p_rgh, Initial residual = 0.001474498, Final residual = 9.849695e-07, No Iterations 566
DILUPBiCGStab:  Solving for p_rgh, Initial residual = 9.667607e-06, Final residual = 4.604571e-09, No Iterations 469
DILUPBiCGStab:  Solving for p_rgh, Initial residual = 2.520388e-07, Final residual = 2.205101e-10, No Iterations 350
time step continuity errors : sum local = 1.90849e-05, global = 6.993371e-05, cumulative = -1.165219
DILUPBiCGStab:  Solving for p_rgh, Initial residual = 0.0009163879, Final residual = 6.457776e-07, No Iterations 509
DILUPBiCGStab:  Solving for p_rgh, Initial residual = 6.675531e-06, Final residual = 4.159435e-09, No Iterations 503
DILUPBiCGStab:  Solving for p_rgh, Initial residual = 1.80641e-07, Final residual = 1.454578e-10, No Iterations 402
time step continuity errors : sum local = 1.900534e-05, global = 6.965602e-05, cumulative = -1.165149
DILUPBiCGStab:  Solving for p_rgh, Initial residual = 0.0009147227, Final residual = 4.62891e-07, No Iterations 559
DILUPBiCGStab:  Solving for p_rgh, Initial residual = 6.398533e-06, Final residual = 5.857659e-09, No Iterations 472
DILUPBiCGStab:  Solving for p_rgh, Initial residual = 2.77119e-07, Final residual = 9.505249e-11, No Iterations 469
time step continuity errors : sum local = 1.899808e-05, global = 6.962988e-05, cumulative = -1.165079
smoothSolver:  Solving for epsilon, Initial residual = 0.04432146, Final residual = 6.792365e-09, No Iterations 10
smoothSolver:  Solving for k, Initial residual = 0.02905697, Final residual = 8.836368e-09, No Iterations 9
PIMPLE: iteration 2
smoothSolver:  Solving for alpha.water, Initial residual = 3.040604e-07, Final residual = 9.435884e-12, No Iterations 2
Phase-1 volume fraction = 0.1024223  Min(alpha.water) = -5.272384e-62  Max(alpha.water) = 1
MULES: Correcting alpha.water
MULES: Correcting alpha.water
MULES: Correcting alpha.water
Phase-1 volume fraction = 0.1024223  Min(alpha.water) = -5.272384e-62  Max(alpha.water) = 1
DILUPBiCGStab:  Solving for p_rgh, Initial residual = 0.0009208524, Final residual = 6.501586e-07, No Iterations 605
DILUPBiCGStab:  Solving for p_rgh, Initial residual = 6.539433e-06, Final residual = 5.508419e-09, No Iterations 495
DILUPBiCGStab:  Solving for p_rgh, Initial residual = 2.599847e-07, Final residual = 1.373132e-10, No Iterations 471
time step continuity errors : sum local = 1.909172e-05, global = 6.99619e-05, cumulative = -1.165009
DILUPBiCGStab:  Solving for p_rgh, Initial residual = 6.275663e-06, Final residual = 5.987719e-09, No Iterations 585
DILUPBiCGStab:  Solving for p_rgh, Initial residual = 9.452744e-08, Final residual = 4.92661e-11, No Iterations 490
DILUPBiCGStab:  Solving for p_rgh, Initial residual = 2.619342e-09, Final residual = 9.27653e-11, No Iterations 64
time step continuity errors : sum local = 1.883709e-05, global = 6.903193e-05, cumulative = -1.16494
DILUPBiCGStab:  Solving for p_rgh, Initial residual = 8.108215e-08, Final residual = 8.214582e-11, No Iterations 496
DILUPBiCGStab:  Solving for p_rgh, Initial residual = 7.159537e-10, Final residual = 9.531903e-11, No Iterations 105
DILUPBiCGStab:  Solving for p_rgh, Initial residual = 1.17499e-10, Final residual = 7.899828e-11, No Iterations 8
time step continuity errors : sum local = 1.883911e-05, global = 6.903931e-05, cumulative = -1.164871
smoothSolver:  Solving for epsilon, Initial residual = 0.009032613, Final residual = 1.941507e-09, No Iterations 9
smoothSolver:  Solving for k, Initial residual = 0.003089483, Final residual = 6.783903e-10, No Iterations 9
ExecutionTime = 24.98 s  ClockTime = 25 s

Courant Number mean: 0.001006188 max: 0.9702821
Interface Courant Number mean: 3.461571e-07 max: 0.002541233
deltaT = 6.699124e-06
Time = 0.000607828

PIMPLE: iteration 1
inverseDistance : detected 2 mesh regions
    zone:0 nCells:347432  voxels:(312 759 1) bb:(-0.65 -1.6625 -0.1) (0.65 1.5 0.1)
    zone:1 nCells:1728  voxels:(312 759 1) bb:(-0.65 -1.6625 -0.1) (0.65 1.5 0.1)
Overset analysis : nCells : 349160
    calculated   : 329580
    interpolated : 1156 (from local:0  mixed local/remote:0  remote:1156)
    hole         : 18424

Execution time for mesh.update() = 0.61 s
Mesh Courant Number mean: 5.633505e-05 max: 0.0325375
smoothSolver:  Solving for alpha.water, Initial residual = 1.00618e-06, Final residual = 1.026156e-12, No Iterations 1
Phase-1 volume fraction = 0.1024223  Min(alpha.water) = -5.090553e-62  Max(alpha.water) = 1
MULES: Correcting alpha.water
MULES: Correcting alpha.water
MULES: Correcting alpha.water
Phase-1 volume fraction = 0.1024223  Min(alpha.water) = -5.090553e-62  Max(alpha.water) = 1
DILUPBiCGStab:  Solving for p_rgh, Initial residual = 0.0005632492, Final residual = 1.600503e-07, No Iterations 568
DILUPBiCGStab:  Solving for p_rgh, Initial residual = 6.703974e-06, Final residual = 6.264163e-09, No Iterations 381
DILUPBiCGStab:  Solving for p_rgh, Initial residual = 1.923996e-07, Final residual = 1.87553e-10, No Iterations 434
time step continuity errors : sum local = 1.228303e-05, global = 4.463183e-05, cumulative = -1.164827
DILUPBiCGStab:  Solving for p_rgh, Initial residual = 0.0004509125, Final residual = 1.140424e-07, No Iterations 555
DILUPBiCGStab:  Solving for p_rgh, Initial residual = 4.439279e-06, Final residual = 4.434371e-09, No Iterations 380
DILUPBiCGStab:  Solving for p_rgh, Initial residual = 9.759488e-08, Final residual = 9.908045e-11, No Iterations 415
time step continuity errors : sum local = 1.196938e-05, global = 4.350712e-05, cumulative = -1.164783
DILUPBiCGStab:  Solving for p_rgh, Initial residual = 0.0004513689, Final residual = 1.483755e-07, No Iterations 571
DILUPBiCGStab:  Solving for p_rgh, Initial residual = 4.506712e-06, Final residual = 4.231126e-09, No Iterations 372
DILUPBiCGStab:  Solving for p_rgh, Initial residual = 1.704082e-07, Final residual = 7.576872e-11, No Iterations 506
time step continuity errors : sum local = 1.195954e-05, global = 4.347186e-05, cumulative = -1.16474
smoothSolver:  Solving for epsilon, Initial residual = 0.04323957, Final residual = 7.475138e-09, No Iterations 10
smoothSolver:  Solving for k, Initial residual = 0.02632375, Final residual = 9.095054e-09, No Iterations 9
PIMPLE: iteration 2
smoothSolver:  Solving for alpha.water, Initial residual = 2.975926e-07, Final residual = 1.024445e-11, No Iterations 2
Phase-1 volume fraction = 0.1024223  Min(alpha.water) = -5.084588e-62  Max(alpha.water) = 1
MULES: Correcting alpha.water
MULES: Correcting alpha.water
MULES: Correcting alpha.water
Phase-1 volume fraction = 0.1024223  Min(alpha.water) = -5.084588e-62  Max(alpha.water) = 1
DILUPBiCGStab:  Solving for p_rgh, Initial residual = 0.0004543318, Final residual = 1.34684e-07, No Iterations 606
DILUPBiCGStab:  Solving for p_rgh, Initial residual = 4.353653e-06, Final residual = 4.31965e-09, No Iterations 327
DILUPBiCGStab:  Solving for p_rgh, Initial residual = 2.038778e-07, Final residual = 2.029009e-10, No Iterations 241
time step continuity errors : sum local = 1.202572e-05, global = 4.370921e-05, cumulative = -1.164696
DILUPBiCGStab:  Solving for p_rgh, Initial residual = 4.510093e-06, Final residual = 4.058675e-09, No Iterations 611
DILUPBiCGStab:  Solving for p_rgh, Initial residual = 9.470012e-08, Final residual = 8.021819e-11, No Iterations 405
DILUPBiCGStab:  Solving for p_rgh, Initial residual = 1.496049e-09, Final residual = 3.343666e-11, No Iterations 108
time step continuity errors : sum local = 1.212187e-05, global = 4.405413e-05, cumulative = -1.164652
DILUPBiCGStab:  Solving for p_rgh, Initial residual = 7.391198e-08, Final residual = 9.424048e-11, No Iterations 609
DILUPBiCGStab:  Solving for p_rgh, Initial residual = 1.945806e-09, Final residual = 9.970946e-11, No Iterations 35
DILUPBiCGStab:  Solving for p_rgh, Initial residual = 1.138764e-10, Final residual = 9.169448e-11, No Iterations 7
time step continuity errors : sum local = 1.21234e-05, global = 4.405961e-05, cumulative = -1.164608
smoothSolver:  Solving for epsilon, Initial residual = 0.009499, Final residual = 2.28038e-09, No Iterations 9
smoothSolver:  Solving for k, Initial residual = 0.003373533, Final residual = 8.598662e-10, No Iterations 9
ExecutionTime = 31.61 s  ClockTime = 32 s

Courant Number mean: 0.001020511 max: 0.9792381
Interface Courant Number mean: 3.498751e-07 max: 0.002580773
deltaT = 6.84062e-06
Time = 0.000614669

PIMPLE: iteration 1
inverseDistance : detected 2 mesh regions
    zone:0 nCells:347432  voxels:(312 759 1) bb:(-0.65 -1.6625 -0.1) (0.65 1.5 0.1)
    zone:1 nCells:1728  voxels:(312 759 1) bb:(-0.65 -1.6625 -0.1) (0.65 1.5 0.1)
Overset analysis : nCells : 349160
    calculated   : 329580
    interpolated : 1156 (from local:0  mixed local/remote:0  remote:1156)
    hole         : 18424

Execution time for mesh.update() = 0.55 s
Mesh Courant Number mean: 5.753235e-05 max: 0.03322902
smoothSolver:  Solving for alpha.water, Initial residual = 1.004664e-06, Final residual = 1.054663e-12, No Iterations 1
Phase-1 volume fraction = 0.1024224  Min(alpha.water) = -4.888691e-62  Max(alpha.water) = 1
MULES: Correcting alpha.water
MULES: Correcting alpha.water
MULES: Correcting alpha.water
Phase-1 volume fraction = 0.1024224  Min(alpha.water) = -4.888691e-62  Max(alpha.water) = 1
DILUPBiCGStab:  Solving for p_rgh, Initial residual = 0.0005647243, Final residual = 3.605599e-07, No Iterations 494
DILUPBiCGStab:  Solving for p_rgh, Initial residual = 7.337108e-06, Final residual = 7.330075e-09, No Iterations 487
DILUPBiCGStab:  Solving for p_rgh, Initial residual = 2.019587e-07, Final residual = 1.547157e-10, No Iterations 471
time step continuity errors : sum local = 7.428433e-06, global = 2.675377e-05, cumulative = -1.164581
DILUPBiCGStab:  Solving for p_rgh, Initial residual = 0.0004531746, Final residual = 3.62212e-07, No Iterations 460
DILUPBiCGStab:  Solving for p_rgh, Initial residual = 4.903337e-06, Final residual = 4.552862e-09, No Iterations 413
DILUPBiCGStab:  Solving for p_rgh, Initial residual = 1.601411e-07, Final residual = 9.545238e-11, No Iterations 356
time step continuity errors : sum local = 7.232037e-06, global = 2.60555e-05, cumulative = -1.164555
DILUPBiCGStab:  Solving for p_rgh, Initial residual = 0.0004543263, Final residual = 3.283003e-08, No Iterations 516
DILUPBiCGStab:  Solving for p_rgh, Initial residual = 4.629099e-06, Final residual = 8.095478e-10, No Iterations 516
DILUPBiCGStab:  Solving for p_rgh, Initial residual = 6.805625e-08, Final residual = 9.962259e-11, No Iterations 198
time step continuity errors : sum local = 7.226221e-06, global = 2.603488e-05, cumulative = -1.164529
smoothSolver:  Solving for epsilon, Initial residual = 0.04355647, Final residual = 8.392258e-09, No Iterations 10
smoothSolver:  Solving for k, Initial residual = 0.02517076, Final residual = 9.723431e-09, No Iterations 9
PIMPLE: iteration 2
smoothSolver:  Solving for alpha.water, Initial residual = 2.926443e-07, Final residual = 1.100314e-11, No Iterations 2
Phase-1 volume fraction = 0.1024224  Min(alpha.water) = -4.884922e-62  Max(alpha.water) = 1
MULES: Correcting alpha.water
MULES: Correcting alpha.water
MULES: Correcting alpha.water
Phase-1 volume fraction = 0.1024224  Min(alpha.water) = -4.884922e-62  Max(alpha.water) = 1
DILUPBiCGStab:  Solving for p_rgh, Initial residual = 0.0004586914, Final residual = 1.731445e-07, No Iterations 610
DILUPBiCGStab:  Solving for p_rgh, Initial residual = 4.770225e-06, Final residual = 3.237607e-09, No Iterations 461
DILUPBiCGStab:  Solving for p_rgh, Initial residual = 1.011131e-07, Final residual = 8.109415e-11, No Iterations 386
time step continuity errors : sum local = 7.258296e-06, global = 2.61502e-05, cumulative = -1.164503
DILUPBiCGStab:  Solving for p_rgh, Initial residual = 4.109979e-06, Final residual = 3.05169e-09, No Iterations 584
DILUPBiCGStab:  Solving for p_rgh, Initial residual = 9.893115e-08, Final residual = 9.727788e-11, No Iterations 234
DILUPBiCGStab:  Solving for p_rgh, Initial residual = 1.261407e-09, Final residual = 9.717565e-11, No Iterations 113
time step continuity errors : sum local = 7.328086e-06, global = 2.639881e-05, cumulative = -1.164477
DILUPBiCGStab:  Solving for p_rgh, Initial residual = 7.600966e-08, Final residual = 5.070895e-11, No Iterations 527
DILUPBiCGStab:  Solving for p_rgh, Initial residual = 2.31247e-09, Final residual = 9.99161e-11, No Iterations 11
DILUPBiCGStab:  Solving for p_rgh, Initial residual = 1.10766e-10, Final residual = 8.496655e-11, No Iterations 4
time step continuity errors : sum local = 7.328934e-06, global = 2.640182e-05, cumulative = -1.16445
smoothSolver:  Solving for epsilon, Initial residual = 0.008328882, Final residual = 2.209296e-09, No Iterations 9
smoothSolver:  Solving for k, Initial residual = 0.002679089, Final residual = 7.813579e-10, No Iterations 9
ExecutionTime = 38.1 s  ClockTime = 39 s

Courant Number mean: 0.001032319 max: 0.9869817
Interface Courant Number mean: 3.524423e-07 max: 0.002611283
deltaT = 6.931559e-06
Time = 0.0006216

PIMPLE: iteration 1
inverseDistance : detected 2 mesh regions
    zone:0 nCells:347432  voxels:(312 759 1) bb:(-0.65 -1.6625 -0.1) (0.65 1.5 0.1)
    zone:1 nCells:1728  voxels:(312 759 1) bb:(-0.65 -1.6625 -0.1) (0.65 1.5 0.1)
Overset analysis : nCells : 349160
    calculated   : 329580
    interpolated : 1156 (from local:0  mixed local/remote:0  remote:1156)
    hole         : 18424

Execution time for mesh.update() = 0.55 s
Mesh Courant Number mean: 5.830483e-05 max: 0.03367518
smoothSolver:  Solving for alpha.water, Initial residual = 1.004055e-06, Final residual = 1.078197e-12, No Iterations 1
Phase-1 volume fraction = 0.1024224  Min(alpha.water) = -4.679903e-62  Max(alpha.water) = 1
MULES: Correcting alpha.water
MULES: Correcting alpha.water
MULES: Correcting alpha.water
Phase-1 volume fraction = 0.1024224  Min(alpha.water) = -4.679903e-62  Max(alpha.water) = 1
DILUPBiCGStab:  Solving for p_rgh, Initial residual = 0.0006482661, Final residual = 2.387694e-07, No Iterations 491
DILUPBiCGStab:  Solving for p_rgh, Initial residual = 7.113482e-06, Final residual = 3.963393e-09, No Iterations 432
DILUPBiCGStab:  Solving for p_rgh, Initial residual = 1.491095e-07, Final residual = 1.455457e-10, No Iterations 490
time step continuity errors : sum local = 4.492606e-06, global = 1.602003e-05, cumulative = -1.164434
DILUPBiCGStab:  Solving for p_rgh, Initial residual = 0.0005187058, Final residual = 5.174955e-07, No Iterations 451
DILUPBiCGStab:  Solving for p_rgh, Initial residual = 5.013263e-06, Final residual = 5.012732e-09, No Iterations 460
DILUPBiCGStab:  Solving for p_rgh, Initial residual = 3.233642e-07, Final residual = 3.203522e-10, No Iterations 154
time step continuity errors : sum local = 4.378672e-06, global = 1.561878e-05, cumulative = -1.164418
DILUPBiCGStab:  Solving for p_rgh, Initial residual = 0.0005198843, Final residual = 4.515581e-07, No Iterations 555
DILUPBiCGStab:  Solving for p_rgh, Initial residual = 5.13077e-06, Final residual = 5.125745e-09, No Iterations 410
DILUPBiCGStab:  Solving for p_rgh, Initial residual = 2.281856e-07, Final residual = 5.974382e-11, No Iterations 463
time step continuity errors : sum local = 4.375389e-06, global = 1.560727e-05, cumulative = -1.164403
smoothSolver:  Solving for epsilon, Initial residual = 0.04336909, Final residual = 9.23775e-09, No Iterations 10
smoothSolver:  Solving for k, Initial residual = 0.02416132, Final residual = 4.545915e-09, No Iterations 10
PIMPLE: iteration 2
smoothSolver:  Solving for alpha.water, Initial residual = 2.885696e-07, Final residual = 1.171388e-11, No Iterations 2
Phase-1 volume fraction = 0.1024224  Min(alpha.water) = -4.677506e-62  Max(alpha.water) = 1
MULES: Correcting alpha.water
MULES: Correcting alpha.water
MULES: Correcting alpha.water
Phase-1 volume fraction = 0.1024224  Min(alpha.water) = -4.677506e-62  Max(alpha.water) = 1
DILUPBiCGStab:  Solving for p_rgh, Initial residual = 0.0005246708, Final residual = 4.782298e-07, No Iterations 473
DILUPBiCGStab:  Solving for p_rgh, Initial residual = 5.418712e-06, Final residual = 5.356411e-09, No Iterations 556
DILUPBiCGStab:  Solving for p_rgh, Initial residual = 2.738e-07, Final residual = 2.371626e-10, No Iterations 510
time step continuity errors : sum local = 4.389236e-06, global = 1.565719e-05, cumulative = -1.164387
DILUPBiCGStab:  Solving for p_rgh, Initial residual = 4.02619e-06, Final residual = 2.142133e-09, No Iterations 619
DILUPBiCGStab:  Solving for p_rgh, Initial residual = 1.044593e-07, Final residual = 1.026683e-10, No Iterations 341
DILUPBiCGStab:  Solving for p_rgh, Initial residual = 1.361961e-09, Final residual = 8.277796e-11, No Iterations 95
time step continuity errors : sum local = 4.428383e-06, global = 1.579539e-05, cumulative = -1.164371
DILUPBiCGStab:  Solving for p_rgh, Initial residual = 7.728118e-08, Final residual = 5.62101e-11, No Iterations 545
DILUPBiCGStab:  Solving for p_rgh, Initial residual = 2.478827e-09, Final residual = 9.84973e-11, No Iterations 12
DILUPBiCGStab:  Solving for p_rgh, Initial residual = 1.129113e-10, Final residual = 9.159122e-11, No Iterations 4
time step continuity errors : sum local = 4.42886e-06, global = 1.579707e-05, cumulative = -1.164356
smoothSolver:  Solving for epsilon, Initial residual = 0.007227817, Final residual = 2.122442e-09, No Iterations 9
smoothSolver:  Solving for k, Initial residual = 0.00211572, Final residual = 7.082816e-10, No Iterations 9
ExecutionTime = 45.5 s  ClockTime = 46 s

Courant Number mean: 0.001040202 max: 0.9922896
Interface Courant Number mean: 3.540983e-07 max: 0.002630858
deltaT = 6.983172e-06
Time = 0.000628584

PIMPLE: iteration 1
inverseDistance : detected 2 mesh regions
    zone:0 nCells:347432  voxels:(312 759 1) bb:(-0.65 -1.6625 -0.1) (0.65 1.5 0.1)
    zone:1 nCells:1728  voxels:(312 759 1) bb:(-0.65 -1.6625 -0.1) (0.65 1.5 0.1)
Overset analysis : nCells : 349160
    calculated   : 329580
    interpolated : 1156 (from local:0  mixed local/remote:0  remote:1156)
    hole         : 18424

Execution time for mesh.update() = 0.59 s
Mesh Courant Number mean: 5.874674e-05 max: 0.03393042
smoothSolver:  Solving for alpha.water, Initial residual = 1.002813e-06, Final residual = 1.09725e-12, No Iterations 1
Phase-1 volume fraction = 0.1024224  Min(alpha.water) = -4.467052e-62  Max(alpha.water) = 1
MULES: Correcting alpha.water
MULES: Correcting alpha.water
MULES: Correcting alpha.water
Phase-1 volume fraction = 0.1024224  Min(alpha.water) = -4.467052e-62  Max(alpha.water) = 1
DILUPBiCGStab:  Solving for p_rgh, Initial residual = 0.00077234, Final residual = 5.914316e-07, No Iterations 442
DILUPBiCGStab:  Solving for p_rgh, Initial residual = 7.634059e-06, Final residual = 7.331013e-09, No Iterations 451
DILUPBiCGStab:  Solving for p_rgh, Initial residual = 3.973799e-07, Final residual = 3.789943e-10, No Iterations 211
time step continuity errors : sum local = 2.699095e-06, global = 9.512339e-06, cumulative = -1.164346
DILUPBiCGStab:  Solving for p_rgh, Initial residual = 0.0006167801, Final residual = 3.93213e-07, No Iterations 494
DILUPBiCGStab:  Solving for p_rgh, Initial residual = 5.161092e-06, Final residual = 4.693841e-09, No Iterations 456
DILUPBiCGStab:  Solving for p_rgh, Initial residual = 2.315263e-07, Final residual = 2.304415e-10, No Iterations 413
time step continuity errors : sum local = 2.63219e-06, global = 9.279006e-06, cumulative = -1.164337
DILUPBiCGStab:  Solving for p_rgh, Initial residual = 0.0006182075, Final residual = 5.093902e-07, No Iterations 548
DILUPBiCGStab:  Solving for p_rgh, Initial residual = 5.205159e-06, Final residual = 4.503426e-09, No Iterations 499
DILUPBiCGStab:  Solving for p_rgh, Initial residual = 2.686366e-07, Final residual = 5.868099e-11, No Iterations 521
time step continuity errors : sum local = 2.630332e-06, global = 9.272565e-06, cumulative = -1.164328
smoothSolver:  Solving for epsilon, Initial residual = 0.04258272, Final residual = 9.96865e-09, No Iterations 10
smoothSolver:  Solving for k, Initial residual = 0.02313583, Final residual = 4.741024e-09, No Iterations 10
PIMPLE: iteration 2
smoothSolver:  Solving for alpha.water, Initial residual = 2.887886e-07, Final residual = 1.238726e-11, No Iterations 2
Phase-1 volume fraction = 0.1024224  Min(alpha.water) = -4.465462e-62  Max(alpha.water) = 1
MULES: Correcting alpha.water
MULES: Correcting alpha.water
MULES: Correcting alpha.water
Phase-1 volume fraction = 0.1024224  Min(alpha.water) = -4.465462e-62  Max(alpha.water) = 1
DILUPBiCGStab:  Solving for p_rgh, Initial residual = 0.0006233658, Final residual = 5.99682e-07, No Iterations 480
DILUPBiCGStab:  Solving for p_rgh, Initial residual = 5.689523e-06, Final residual = 4.267195e-09, No Iterations 374
DILUPBiCGStab:  Solving for p_rgh, Initial residual = 3.768461e-07, Final residual = 3.645803e-10, No Iterations 214
time step continuity errors : sum local = 2.635878e-06, global = 9.292701e-06, cumulative = -1.164318
DILUPBiCGStab:  Solving for p_rgh, Initial residual = 4.04277e-06, Final residual = 2.80191e-09, No Iterations 568
DILUPBiCGStab:  Solving for p_rgh, Initial residual = 1.096439e-07, Final residual = 7.410748e-11, No Iterations 358
DILUPBiCGStab:  Solving for p_rgh, Initial residual = 2.054997e-09, Final residual = 9.351426e-11, No Iterations 42
time step continuity errors : sum local = 2.657959e-06, global = 9.369921e-06, cumulative = -1.164309
DILUPBiCGStab:  Solving for p_rgh, Initial residual = 8.029485e-08, Final residual = 5.879678e-11, No Iterations 569
DILUPBiCGStab:  Solving for p_rgh, Initial residual = 2.688412e-09, Final residual = 9.98381e-11, No Iterations 17
DILUPBiCGStab:  Solving for p_rgh, Initial residual = 1.239914e-10, Final residual = 9.339652e-11, No Iterations 6
time step continuity errors : sum local = 2.65824e-06, global = 9.370897e-06, cumulative = -1.1643
smoothSolver:  Solving for epsilon, Initial residual = 0.006275306, Final residual = 2.038805e-09, No Iterations 9
smoothSolver:  Solving for k, Initial residual = 0.001703243, Final residual = 6.513343e-10, No Iterations 9
ExecutionTime = 52.3 s  ClockTime = 53 s

Courant Number mean: 0.001044448 max: 0.9951272
Interface Courant Number mean: 3.556131e-07 max: 0.002640886
deltaT = 7.019788e-06
Time = 0.000635603

PIMPLE: iteration 1
inverseDistance : detected 2 mesh regions
    zone:0 nCells:347432  voxels:(312 759 1) bb:(-0.65 -1.6625 -0.1) (0.65 1.5 0.1)
    zone:1 nCells:1728  voxels:(312 759 1) bb:(-0.65 -1.6625 -0.1) (0.65 1.5 0.1)
Overset analysis : nCells : 349160
    calculated   : 329580
    interpolated : 1156 (from local:0  mixed local/remote:0  remote:1156)
    hole         : 18424

Execution time for mesh.update() = 0.53 s
Mesh Courant Number mean: 5.906263e-05 max: 0.03411287
smoothSolver:  Solving for alpha.water, Initial residual = 1.002563e-06, Final residual = 1.116992e-12, No Iterations 1
Phase-1 volume fraction = 0.1024224  Min(alpha.water) = -4.251273e-62  Max(alpha.water) = 1
MULES: Correcting alpha.water
MULES: Correcting alpha.water
MULES: Correcting alpha.water
Phase-1 volume fraction = 0.1024224  Min(alpha.water) = -4.251273e-62  Max(alpha.water) = 1
DILUPBiCGStab:  Solving for p_rgh, Initial residual = 0.0009718102, Final residual = 4.302427e-07, No Iterations 565
DILUPBiCGStab:  Solving for p_rgh, Initial residual = 7.991573e-06, Final residual = 7.174817e-09, No Iterations 445
DILUPBiCGStab:  Solving for p_rgh, Initial residual = 2.867428e-07, Final residual = 2.849606e-10, No Iterations 315
time step continuity errors : sum local = 1.572931e-06, global = 5.459884e-06, cumulative = -1.164294
DILUPBiCGStab:  Solving for p_rgh, Initial residual = 0.0007805927, Final residual = 2.41023e-07, No Iterations 579
DILUPBiCGStab:  Solving for p_rgh, Initial residual = 5.364178e-06, Final residual = 5.036145e-09, No Iterations 537
DILUPBiCGStab:  Solving for p_rgh, Initial residual = 3.69726e-07, Final residual = 3.223044e-10, No Iterations 376
time step continuity errors : sum local = 1.533007e-06, global = 5.322058e-06, cumulative = -1.164289
DILUPBiCGStab:  Solving for p_rgh, Initial residual = 0.0007820537, Final residual = 2.816455e-07, No Iterations 541
DILUPBiCGStab:  Solving for p_rgh, Initial residual = 5.234392e-06, Final residual = 5.016602e-09, No Iterations 434
DILUPBiCGStab:  Solving for p_rgh, Initial residual = 2.5298e-07, Final residual = 8.33914e-11, No Iterations 478
time step continuity errors : sum local = 1.53197e-06, global = 5.318509e-06, cumulative = -1.164283
smoothSolver:  Solving for epsilon, Initial residual = 0.0414119, Final residual = 7.476622e-10, No Iterations 11
smoothSolver:  Solving for k, Initial residual = 0.02213214, Final residual = 4.928427e-09, No Iterations 10
PIMPLE: iteration 2
smoothSolver:  Solving for alpha.water, Initial residual = 2.899406e-07, Final residual = 1.307647e-11, No Iterations 2
Phase-1 volume fraction = 0.1024224  Min(alpha.water) = -4.250133e-62  Max(alpha.water) = 1
MULES: Correcting alpha.water
MULES: Correcting alpha.water
MULES: Correcting alpha.water
Phase-1 volume fraction = 0.1024224  Min(alpha.water) = -4.250133e-62  Max(alpha.water) = 1
DILUPBiCGStab:  Solving for p_rgh, Initial residual = 0.0007890302, Final residual = 6.481368e-07, No Iterations 528
DILUPBiCGStab:  Solving for p_rgh, Initial residual = 6.078114e-06, Final residual = 3.893566e-09, No Iterations 387
DILUPBiCGStab:  Solving for p_rgh, Initial residual = 4.148707e-07, Final residual = 3.334956e-10, No Iterations 415
time step continuity errors : sum local = 1.53297e-06, global = 5.322346e-06, cumulative = -1.164278
DILUPBiCGStab:  Solving for p_rgh, Initial residual = 4.454339e-06, Final residual = 3.658299e-09, No Iterations 564
DILUPBiCGStab:  Solving for p_rgh, Initial residual = 1.282637e-07, Final residual = 1.278633e-10, No Iterations 335
DILUPBiCGStab:  Solving for p_rgh, Initial residual = 5.824126e-09, Final residual = 9.651084e-11, No Iterations 60
time step continuity errors : sum local = 1.54606e-06, global = 5.367694e-06, cumulative = -1.164273
DILUPBiCGStab:  Solving for p_rgh, Initial residual = 9.132424e-08, Final residual = 7.718921e-11, No Iterations 663
DILUPBiCGStab:  Solving for p_rgh, Initial residual = 3.181745e-09, Final residual = 9.412229e-11, No Iterations 29
DILUPBiCGStab:  Solving for p_rgh, Initial residual = 1.89234e-10, Final residual = 9.7768e-11, No Iterations 17
time step continuity errors : sum local = 1.546235e-06, global = 5.368298e-06, cumulative = -1.164267
smoothSolver:  Solving for epsilon, Initial residual = 0.005464288, Final residual = 1.967454e-09, No Iterations 9
smoothSolver:  Solving for k, Initial residual = 0.001394794, Final residual = 8.79846e-09, No Iterations 8
ExecutionTime = 58.93 s  ClockTime = 59 s

Courant Number mean: 0.001047885 max: 0.9978847
Interface Courant Number mean: 3.562516e-07 max: 0.002648776
deltaT = 7.03561e-06
Time = 0.000642639

PIMPLE: iteration 1
inverseDistance : detected 2 mesh regions
    zone:0 nCells:347432  voxels:(312 759 1) bb:(-0.65 -1.6625 -0.1) (0.65 1.5 0.1)
    zone:1 nCells:1728  voxels:(312 759 1) bb:(-0.65 -1.6625 -0.1) (0.65 1.5 0.1)
Overset analysis : nCells : 349160
    calculated   : 329580
    interpolated : 1156 (from local:0  mixed local/remote:0  remote:1156)
    hole         : 18424

Execution time for mesh.update() = 0.52 s
Mesh Courant Number mean: 5.920366e-05 max: 0.03419432
smoothSolver:  Solving for alpha.water, Initial residual = 1.00134e-06, Final residual = 1.132756e-12, No Iterations 1
Phase-1 volume fraction = 0.1024224  Min(alpha.water) = -4.033963e-62  Max(alpha.water) = 1
MULES: Correcting alpha.water
MULES: Correcting alpha.water
MULES: Correcting alpha.water
Phase-1 volume fraction = 0.1024224  Min(alpha.water) = -4.033963e-62  Max(alpha.water) = 1
DILUPBiCGStab:  Solving for p_rgh, Initial residual = 0.001278979, Final residual = 7.422864e-07, No Iterations 418
DILUPBiCGStab:  Solving for p_rgh, Initial residual = 8.762514e-06, Final residual = 4.667814e-09, No Iterations 408
DILUPBiCGStab:  Solving for p_rgh, Initial residual = 8.74707e-07, Final residual = 8.416866e-10, No Iterations 179
time step continuity errors : sum local = 8.461753e-07, global = 2.868112e-06, cumulative = -1.164264
DILUPBiCGStab:  Solving for p_rgh, Initial residual = 0.001039957, Final residual = 8.194897e-07, No Iterations 438
DILUPBiCGStab:  Solving for p_rgh, Initial residual = 5.976841e-06, Final residual = 5.529118e-09, No Iterations 541
DILUPBiCGStab:  Solving for p_rgh, Initial residual = 7.678964e-07, Final residual = 7.369276e-10, No Iterations 158
time step continuity errors : sum local = 8.226582e-07, global = 2.787768e-06, cumulative = -1.164262
DILUPBiCGStab:  Solving for p_rgh, Initial residual = 0.001041809, Final residual = 7.112153e-07, No Iterations 447
DILUPBiCGStab:  Solving for p_rgh, Initial residual = 6.406652e-06, Final residual = 6.332961e-09, No Iterations 412
DILUPBiCGStab:  Solving for p_rgh, Initial residual = 4.166503e-07, Final residual = 7.639069e-11, No Iterations 459
time step continuity errors : sum local = 8.221245e-07, global = 2.785975e-06, cumulative = -1.164259
smoothSolver:  Solving for epsilon, Initial residual = 0.03992845, Final residual = 8.022588e-10, No Iterations 11
smoothSolver:  Solving for k, Initial residual = 0.02112164, Final residual = 5.099415e-09, No Iterations 10
PIMPLE: iteration 2
smoothSolver:  Solving for alpha.water, Initial residual = 2.910915e-07, Final residual = 1.375835e-11, No Iterations 2
Phase-1 volume fraction = 0.1024224  Min(alpha.water) = -4.033063e-62  Max(alpha.water) = 1
MULES: Correcting alpha.water
MULES: Correcting alpha.water
MULES: Correcting alpha.water
Phase-1 volume fraction = 0.1024224  Min(alpha.water) = -4.033063e-62  Max(alpha.water) = 1
DILUPBiCGStab:  Solving for p_rgh, Initial residual = 0.001052417, Final residual = 1.021697e-06, No Iterations 366
DILUPBiCGStab:  Solving for p_rgh, Initial residual = 6.166735e-06, Final residual = 5.618104e-09, No Iterations 488
DILUPBiCGStab:  Solving for p_rgh, Initial residual = 1.008013e-06, Final residual = 8.486836e-10, No Iterations 200
time step continuity errors : sum local = 8.210387e-07, global = 2.782376e-06, cumulative = -1.164256
DILUPBiCGStab:  Solving for p_rgh, Initial residual = 5.384451e-06, Final residual = 3.40221e-09, No Iterations 528
DILUPBiCGStab:  Solving for p_rgh, Initial residual = 1.478531e-07, Final residual = 1.146624e-10, No Iterations 384
DILUPBiCGStab:  Solving for p_rgh, Initial residual = 5.935292e-09, Final residual = 3.502193e-11, No Iterations 121
time step continuity errors : sum local = 8.290315e-07, global = 2.809826e-06, cumulative = -1.164253
DILUPBiCGStab:  Solving for p_rgh, Initial residual = 1.125656e-07, Final residual = 9.323927e-11, No Iterations 584
DILUPBiCGStab:  Solving for p_rgh, Initial residual = 3.719258e-09, Final residual = 9.996706e-11, No Iterations 38
DILUPBiCGStab:  Solving for p_rgh, Initial residual = 1.966467e-10, Final residual = 9.572543e-11, No Iterations 15
time step continuity errors : sum local = 8.291441e-07, global = 2.810209e-06, cumulative = -1.164251
smoothSolver:  Solving for epsilon, Initial residual = 0.004752731, Final residual = 1.89777e-09, No Iterations 9
smoothSolver:  Solving for k, Initial residual = 0.001150238, Final residual = 7.599168e-09, No Iterations 8
ExecutionTime = 65.16 s  ClockTime = 66 s

Courant Number mean: 0.001049151 max: 0.9990245
Interface Courant Number mean: 3.562822e-07 max: 0.002651193
deltaT = 7.040904e-06
Time = 0.00064968

PIMPLE: iteration 1
inverseDistance : detected 2 mesh regions
    zone:0 nCells:347432  voxels:(312 759 1) bb:(-0.65 -1.6625 -0.1) (0.65 1.5 0.1)
    zone:1 nCells:1728  voxels:(312 759 1) bb:(-0.65 -1.6625 -0.1) (0.65 1.5 0.1)
Overset analysis : nCells : 349160
    calculated   : 329580
    interpolated : 1156 (from local:0  mixed local/remote:0  remote:1156)
    hole         : 18424

Execution time for mesh.update() = 0.56 s
Mesh Courant Number mean: 5.925613e-05 max: 0.03422463
smoothSolver:  Solving for alpha.water, Initial residual = 9.999153e-07, Final residual = 1.146583e-12, No Iterations 1
Phase-1 volume fraction = 0.1024224  Min(alpha.water) = -3.815818e-62  Max(alpha.water) = 1
MULES: Correcting alpha.water
MULES: Correcting alpha.water
MULES: Correcting alpha.water
Phase-1 volume fraction = 0.1024224  Min(alpha.water) = -3.815818e-62  Max(alpha.water) = 1
DILUPBiCGStab:  Solving for p_rgh, Initial residual = 0.001854249, Final residual = 1.441574e-06, No Iterations 426
DILUPBiCGStab:  Solving for p_rgh, Initial residual = 1.406296e-05, Final residual = 8.486661e-09, No Iterations 503
DILUPBiCGStab:  Solving for p_rgh, Initial residual = 9.109925e-07, Final residual = 9.06854e-10, No Iterations 310
time step continuity errors : sum local = 3.722422e-07, global = 1.19031e-06, cumulative = -1.164249
DILUPBiCGStab:  Solving for p_rgh, Initial residual = 0.00155165, Final residual = 1.547146e-06, No Iterations 272
DILUPBiCGStab:  Solving for p_rgh, Initial residual = 8.35745e-06, Final residual = 6.887536e-09, No Iterations 429
DILUPBiCGStab:  Solving for p_rgh, Initial residual = 2.30903e-06, Final residual = 1.055451e-09, No Iterations 230
time step continuity errors : sum local = 3.589175e-07, global = 1.145536e-06, cumulative = -1.164248
DILUPBiCGStab:  Solving for p_rgh, Initial residual = 0.001554155, Final residual = 1.454853e-06, No Iterations 280
DILUPBiCGStab:  Solving for p_rgh, Initial residual = 8.426705e-06, Final residual = 2.636525e-09, No Iterations 425
DILUPBiCGStab:  Solving for p_rgh, Initial residual = 2.018031e-06, Final residual = 6.251289e-11, No Iterations 536
time step continuity errors : sum local = 3.586947e-07, global = 1.144838e-06, cumulative = -1.164247
smoothSolver:  Solving for epsilon, Initial residual = 0.03828114, Final residual = 8.573956e-10, No Iterations 11
smoothSolver:  Solving for k, Initial residual = 0.02013371, Final residual = 5.260455e-09, No Iterations 10
PIMPLE: iteration 2
smoothSolver:  Solving for alpha.water, Initial residual = 2.922547e-07, Final residual = 1.445598e-11, No Iterations 2
Phase-1 volume fraction = 0.1024224  Min(alpha.water) = -3.815033e-62  Max(alpha.water) = 1
MULES: Correcting alpha.water
MULES: Correcting alpha.water
MULES: Correcting alpha.water
Phase-1 volume fraction = 0.1024224  Min(alpha.water) = -3.815033e-62  Max(alpha.water) = 1
DILUPBiCGStab:  Solving for p_rgh, Initial residual = 0.001572239, Final residual = 1.420335e-06, No Iterations 329
DILUPBiCGStab:  Solving for p_rgh, Initial residual = 8.169961e-06, Final residual = 2.512832e-09, No Iterations 587
DILUPBiCGStab:  Solving for p_rgh, Initial residual = 2.353974e-06, Final residual = 2.048287e-09, No Iterations 186
time step continuity errors : sum local = 3.56154e-07, global = 1.136005e-06, cumulative = -1.164246
DILUPBiCGStab:  Solving for p_rgh, Initial residual = 8.081084e-06, Final residual = 5.214675e-09, No Iterations 524
DILUPBiCGStab:  Solving for p_rgh, Initial residual = 2.258596e-07, Final residual = 2.151107e-10, No Iterations 311
DILUPBiCGStab:  Solving for p_rgh, Initial residual = 1.62277e-08, Final residual = 9.335421e-11, No Iterations 193
time step continuity errors : sum local = 3.611304e-07, global = 1.152959e-06, cumulative = -1.164245
DILUPBiCGStab:  Solving for p_rgh, Initial residual = 1.73409e-07, Final residual = 1.590221e-10, No Iterations 597
DILUPBiCGStab:  Solving for p_rgh, Initial residual = 6.3531e-09, Final residual = 9.995891e-11, No Iterations 127
DILUPBiCGStab:  Solving for p_rgh, Initial residual = 6.239154e-10, Final residual = 9.979375e-11, No Iterations 141
time step continuity errors : sum local = 3.61204e-07, global = 1.153206e-06, cumulative = -1.164244
smoothSolver:  Solving for epsilon, Initial residual = 0.00413903, Final residual = 1.833794e-09, No Iterations 9
smoothSolver:  Solving for k, Initial residual = 0.0009568863, Final residual = 6.59638e-09, No Iterations 8
ExecutionTime = 71.7 s  ClockTime = 72 s

Courant Number mean: 0.001049461 max: 0.9995391
Interface Courant Number mean: 3.560762e-07 max: 0.002651269
deltaT = 7.04621e-06
Time = 0.000656726

PIMPLE: iteration 1
inverseDistance : detected 2 mesh regions
    zone:0 nCells:347432  voxels:(312 759 1) bb:(-0.65 -1.6625 -0.1) (0.65 1.5 0.1)
    zone:1 nCells:1728  voxels:(312 759 1) bb:(-0.65 -1.6625 -0.1) (0.65 1.5 0.1)
Overset analysis : nCells : 349160
    calculated   : 329580
    interpolated : 1156 (from local:0  mixed local/remote:0  remote:1156)
    hole         : 18424

Execution time for mesh.update() = 0.54 s
Mesh Courant Number mean: 5.930871e-05 max: 0.034255
smoothSolver:  Solving for alpha.water, Initial residual = 9.993429e-07, Final residual = 1.15964e-12, No Iterations 1
Phase-1 volume fraction = 0.1024224  Min(alpha.water) = -3.596824e-62  Max(alpha.water) = 1
MULES: Correcting alpha.water
MULES: Correcting alpha.water
MULES: Correcting alpha.water
Phase-1 volume fraction = 0.1024224  Min(alpha.water) = -3.596824e-62  Max(alpha.water) = 1
DILUPBiCGStab:  Solving for p_rgh, Initial residual = 0.003259421, Final residual = 3.254596e-06, No Iterations 255
DILUPBiCGStab:  Solving for p_rgh, Initial residual = 3.30354e-05, Final residual = 2.039322e-08, No Iterations 470
DILUPBiCGStab:  Solving for p_rgh, Initial residual = 9.095616e-06, Final residual = 9.052936e-09, No Iterations 149
time step continuity errors : sum local = 8.759573e-08, global = 9.511905e-08, cumulative = -1.164244
DILUPBiCGStab:  Solving for p_rgh, Initial residual = 0.002950033, Final residual = 2.91677e-06, No Iterations 216
DILUPBiCGStab:  Solving for p_rgh, Initial residual = 2.398222e-05, Final residual = 1.732908e-08, No Iterations 561
DILUPBiCGStab:  Solving for p_rgh, Initial residual = 5.67724e-06, Final residual = 5.648028e-09, No Iterations 147
time step continuity errors : sum local = 8.266184e-08, global = 7.275909e-08, cumulative = -1.164243
DILUPBiCGStab:  Solving for p_rgh, Initial residual = 0.002955208, Final residual = 2.794897e-06, No Iterations 225
DILUPBiCGStab:  Solving for p_rgh, Initial residual = 2.363115e-05, Final residual = 1.485261e-08, No Iterations 479
DILUPBiCGStab:  Solving for p_rgh, Initial residual = 6.100519e-06, Final residual = 6.887882e-11, No Iterations 605
time step continuity errors : sum local = 8.262546e-08, global = 7.274853e-08, cumulative = -1.164243
smoothSolver:  Solving for epsilon, Initial residual = 0.03651742, Final residual = 9.148298e-10, No Iterations 11
smoothSolver:  Solving for k, Initial residual = 0.01914254, Final residual = 5.412721e-09, No Iterations 10
PIMPLE: iteration 2
smoothSolver:  Solving for alpha.water, Initial residual = 2.935672e-07, Final residual = 1.519928e-11, No Iterations 2
Phase-1 volume fraction = 0.1024224  Min(alpha.water) = -3.596085e-62  Max(alpha.water) = 1
MULES: Correcting alpha.water
MULES: Correcting alpha.water
MULES: Correcting alpha.water
Phase-1 volume fraction = 0.1024224  Min(alpha.water) = -3.596085e-62  Max(alpha.water) = 1
DILUPBiCGStab:  Solving for p_rgh, Initial residual = 0.00298895, Final residual = 2.755534e-06, No Iterations 208
DILUPBiCGStab:  Solving for p_rgh, Initial residual = 2.362891e-05, Final residual = 1.128594e-08, No Iterations 544
DILUPBiCGStab:  Solving for p_rgh, Initial residual = 6.061481e-06, Final residual = 5.173997e-09, No Iterations 143
time step continuity errors : sum local = 8.198929e-08, global = 6.964105e-08, cumulative = -1.164243
DILUPBiCGStab:  Solving for p_rgh, Initial residual = 2.327424e-05, Final residual = 2.272952e-08, No Iterations 566
DILUPBiCGStab:  Solving for p_rgh, Initial residual = 5.371501e-07, Final residual = 4.05045e-10, No Iterations 320
DILUPBiCGStab:  Solving for p_rgh, Initial residual = 3.315814e-08, Final residual = 9.002445e-11, No Iterations 160
time step continuity errors : sum local = 8.405172e-08, global = 7.990382e-08, cumulative = -1.164243
DILUPBiCGStab:  Solving for p_rgh, Initial residual = 4.907604e-07, Final residual = 4.169828e-10, No Iterations 728
DILUPBiCGStab:  Solving for p_rgh, Initial residual = 1.415803e-08, Final residual = 9.636344e-11, No Iterations 104
DILUPBiCGStab:  Solving for p_rgh, Initial residual = 6.421126e-10, Final residual = 9.827928e-11, No Iterations 29
time step continuity errors : sum local = 8.408612e-08, global = 8.006963e-08, cumulative = -1.164243
smoothSolver:  Solving for epsilon, Initial residual = 0.003623493, Final residual = 1.781326e-09, No Iterations 9
smoothSolver:  Solving for k, Initial residual = 0.0008107038, Final residual = 5.813401e-09, No Iterations 8
ExecutionTime = 78.52 s  ClockTime = 79 s

Courant Number mean: 0.001050179 max: 1.000618
Interface Courant Number mean: 3.568383e-07 max: 0.002652475
deltaT = 7.0409e-06
Time = 0.000663767

PIMPLE: iteration 1
inverseDistance : detected 2 mesh regions
    zone:0 nCells:347432  voxels:(312 759 1) bb:(-0.65 -1.6625 -0.1) (0.65 1.5 0.1)
    zone:1 nCells:1728  voxels:(312 759 1) bb:(-0.65 -1.6625 -0.1) (0.65 1.5 0.1)
Overset analysis : nCells : 349160
    calculated   : 329580
    interpolated : 1156 (from local:0  mixed local/remote:0  remote:1156)
    hole         : 18424

Execution time for mesh.update() = 0.59 s
Mesh Courant Number mean: 5.927194e-05 max: 0.03423376
smoothSolver:  Solving for alpha.water, Initial residual = 9.978293e-07, Final residual = 1.168824e-12, No Iterations 1
Phase-1 volume fraction = 0.1024224  Min(alpha.water) = -3.377638e-62  Max(alpha.water) = 1
MULES: Correcting alpha.water
MULES: Correcting alpha.water
MULES: Correcting alpha.water
Phase-1 volume fraction = 0.1024224  Min(alpha.water) = -3.377638e-62  Max(alpha.water) = 1
DILUPBiCGStab:  Solving for p_rgh, Initial residual = 0.01040131, Final residual = 9.847166e-06, No Iterations 209
DILUPBiCGStab:  Solving for p_rgh, Initial residual = 1.311855e-05, Final residual = 5.870906e-09, No Iterations 491
DILUPBiCGStab:  Solving for p_rgh, Initial residual = 3.523798e-06, Final residual = 2.309339e-09, No Iterations 132
time step continuity errors : sum local = 1.764753e-07, global = -6.038199e-07, cumulative = -1.164244
DILUPBiCGStab:  Solving for p_rgh, Initial residual = 0.01230818, Final residual = 1.198148e-05, No Iterations 205
DILUPBiCGStab:  Solving for p_rgh, Initial residual = 8.852784e-06, Final residual = 5.618574e-09, No Iterations 546
DILUPBiCGStab:  Solving for p_rgh, Initial residual = 1.882529e-06, Final residual = 1.642488e-09, No Iterations 155
time step continuity errors : sum local = 1.792118e-07, global = -6.120659e-07, cumulative = -1.164244
DILUPBiCGStab:  Solving for p_rgh, Initial residual = 0.01217401, Final residual = 1.03907e-05, No Iterations 214
DILUPBiCGStab:  Solving for p_rgh, Initial residual = 8.524432e-06, Final residual = 7.17286e-09, No Iterations 492
DILUPBiCGStab:  Solving for p_rgh, Initial residual = 2.108792e-06, Final residual = 7.700353e-11, No Iterations 551
time step continuity errors : sum local = 1.791087e-07, global = -6.11641e-07, cumulative = -1.164245
smoothSolver:  Solving for epsilon, Initial residual = 0.03472905, Final residual = 9.734814e-10, No Iterations 11
smoothSolver:  Solving for k, Initial residual = 0.01818637, Final residual = 5.557856e-09, No Iterations 10
PIMPLE: iteration 2
smoothSolver:  Solving for alpha.water, Initial residual = 2.943934e-07, Final residual = 1.595384e-11, No Iterations 2
Phase-1 volume fraction = 0.1024224  Min(alpha.water) = -3.376902e-62  Max(alpha.water) = 1
MULES: Correcting alpha.water
MULES: Correcting alpha.water
MULES: Correcting alpha.water
Phase-1 volume fraction = 0.1024224  Min(alpha.water) = -3.376902e-62  Max(alpha.water) = 1
DILUPBiCGStab:  Solving for p_rgh, Initial residual = 0.01233528, Final residual = 1.157542e-05, No Iterations 199
DILUPBiCGStab:  Solving for p_rgh, Initial residual = 8.787879e-06, Final residual = 8.102543e-09, No Iterations 443
DILUPBiCGStab:  Solving for p_rgh, Initial residual = 2.083027e-06, Final residual = 1.333741e-09, No Iterations 176
time step continuity errors : sum local = 1.802152e-07, global = -6.154455e-07, cumulative = -1.164246
DILUPBiCGStab:  Solving for p_rgh, Initial residual = 8.97632e-06, Final residual = 8.157558e-09, No Iterations 556
DILUPBiCGStab:  Solving for p_rgh, Initial residual = 1.974163e-07, Final residual = 1.814852e-10, No Iterations 309
DILUPBiCGStab:  Solving for p_rgh, Initial residual = 1.299409e-08, Final residual = 8.194655e-11, No Iterations 125
time step continuity errors : sum local = 1.7838e-07, global = -6.093625e-07, cumulative = -1.164246
DILUPBiCGStab:  Solving for p_rgh, Initial residual = 1.940651e-07, Final residual = 4.888748e-11, No Iterations 549
DILUPBiCGStab:  Solving for p_rgh, Initial residual = 5.137713e-09, Final residual = 9.957762e-11, No Iterations 26
DILUPBiCGStab:  Solving for p_rgh, Initial residual = 3.035582e-10, Final residual = 9.625151e-11, No Iterations 20
time step continuity errors : sum local = 1.783468e-07, global = -6.092548e-07, cumulative = -1.164247
smoothSolver:  Solving for epsilon, Initial residual = 0.003157149, Final residual = 1.729269e-09, No Iterations 9
smoothSolver:  Solving for k, Initial residual = 0.0006771912, Final residual = 5.067945e-09, No Iterations 8
ExecutionTime = 84.28 s  ClockTime = 85 s

Courant Number mean: 0.001049582 max: 1.000541
Interface Courant Number mean: 3.564231e-07 max: 0.002650471
deltaT = 7.035594e-06
Time = 0.000670803

PIMPLE: iteration 1
inverseDistance : detected 2 mesh regions
    zone:0 nCells:347432  voxels:(312 759 1) bb:(-0.65 -1.6625 -0.1) (0.65 1.5 0.1)
    zone:1 nCells:1728  voxels:(312 759 1) bb:(-0.65 -1.6625 -0.1) (0.65 1.5 0.1)
Overset analysis : nCells : 349160
    calculated   : 329580
    interpolated : 1156 (from local:0  mixed local/remote:0  remote:1156)
    hole         : 18424

Execution time for mesh.update() = 0.52 s
Mesh Courant Number mean: 5.923517e-05 max: 0.03421252
smoothSolver:  Solving for alpha.water, Initial residual = 9.966919e-07, Final residual = 1.178284e-12, No Iterations 1
Phase-1 volume fraction = 0.1024225  Min(alpha.water) = -3.158217e-62  Max(alpha.water) = 1
MULES: Correcting alpha.water
MULES: Correcting alpha.water
MULES: Correcting alpha.water
Phase-1 volume fraction = 0.1024225  Min(alpha.water) = -3.158217e-62  Max(alpha.water) = 1
DILUPBiCGStab:  Solving for p_rgh, Initial residual = 0.004689123, Final residual = 4.684386e-06, No Iterations 161
DILUPBiCGStab:  Solving for p_rgh, Initial residual = 6.319434e-06, Final residual = 5.801821e-09, No Iterations 572
DILUPBiCGStab:  Solving for p_rgh, Initial residual = 1.543176e-06, Final residual = 1.384097e-09, No Iterations 161
time step continuity errors : sum local = 3.012548e-07, global = -1.046329e-06, cumulative = -1.164248
DILUPBiCGStab:  Solving for p_rgh, Initial residual = 0.00279897, Final residual = 2.764876e-06, No Iterations 163
DILUPBiCGStab:  Solving for p_rgh, Initial residual = 4.426446e-06, Final residual = 4.218636e-09, No Iterations 533
DILUPBiCGStab:  Solving for p_rgh, Initial residual = 9.417392e-07, Final residual = 8.594107e-10, No Iterations 188
time step continuity errors : sum local = 3.013722e-07, global = -1.045807e-06, cumulative = -1.164249
DILUPBiCGStab:  Solving for p_rgh, Initial residual = 0.002791368, Final residual = 2.380365e-06, No Iterations 208
DILUPBiCGStab:  Solving for p_rgh, Initial residual = 4.109709e-06, Final residual = 4.063926e-09, No Iterations 554
DILUPBiCGStab:  Solving for p_rgh, Initial residual = 9.332339e-07, Final residual = 9.877689e-11, No Iterations 513
time step continuity errors : sum local = 3.011869e-07, global = -1.045114e-06, cumulative = -1.16425
smoothSolver:  Solving for epsilon, Initial residual = 0.0330063, Final residual = 1.035479e-09, No Iterations 11
smoothSolver:  Solving for k, Initial residual = 0.01729587, Final residual = 5.705718e-09, No Iterations 10
PIMPLE: iteration 2
smoothSolver:  Solving for alpha.water, Initial residual = 2.949038e-07, Final residual = 1.675272e-11, No Iterations 2
Phase-1 volume fraction = 0.1024225  Min(alpha.water) = -3.157462e-62  Max(alpha.water) = 1
MULES: Correcting alpha.water
MULES: Correcting alpha.water
MULES: Correcting alpha.water
Phase-1 volume fraction = 0.1024225  Min(alpha.water) = -3.157462e-62  Max(alpha.water) = 1
DILUPBiCGStab:  Solving for p_rgh, Initial residual = 0.002829771, Final residual = 2.777498e-06, No Iterations 177
DILUPBiCGStab:  Solving for p_rgh, Initial residual = 4.445454e-06, Final residual = 3.868606e-09, No Iterations 557
DILUPBiCGStab:  Solving for p_rgh, Initial residual = 1.008294e-06, Final residual = 8.77921e-10, No Iterations 153
time step continuity errors : sum local = 3.035667e-07, global = -1.053483e-06, cumulative = -1.164251
DILUPBiCGStab:  Solving for p_rgh, Initial residual = 4.29893e-06, Final residual = 3.550922e-09, No Iterations 610
DILUPBiCGStab:  Solving for p_rgh, Initial residual = 9.566361e-08, Final residual = 9.908675e-11, No Iterations 376
DILUPBiCGStab:  Solving for p_rgh, Initial residual = 8.559258e-09, Final residual = 6.950365e-11, No Iterations 109
time step continuity errors : sum local = 3.025108e-07, global = -1.050057e-06, cumulative = -1.164252
DILUPBiCGStab:  Solving for p_rgh, Initial residual = 9.394117e-08, Final residual = 8.757425e-11, No Iterations 538
DILUPBiCGStab:  Solving for p_rgh, Initial residual = 2.700306e-09, Final residual = 9.931059e-11, No Iterations 66
DILUPBiCGStab:  Solving for p_rgh, Initial residual = 3.396757e-10, Final residual = 9.420411e-11, No Iterations 18
time step continuity errors : sum local = 3.024888e-07, global = -1.049986e-06, cumulative = -1.164253
smoothSolver:  Solving for epsilon, Initial residual = 0.002762883, Final residual = 1.685384e-09, No Iterations 9
smoothSolver:  Solving for k, Initial residual = 0.0005687495, Final residual = 4.437486e-09, No Iterations 8
ExecutionTime = 89.88 s  ClockTime = 91 s

Courant Number mean: 0.001049161 max: 1.000677
Interface Courant Number mean: 3.560961e-07 max: 0.002649023
deltaT = 7.030292e-06
Time = 0.000677833

PIMPLE: iteration 1
inverseDistance : detected 2 mesh regions
    zone:0 nCells:347432  voxels:(312 759 1) bb:(-0.65 -1.6625 -0.1) (0.65 1.5 0.1)
    zone:1 nCells:1728  voxels:(312 759 1) bb:(-0.65 -1.6625 -0.1) (0.65 1.5 0.1)
Overset analysis : nCells : 349160
    calculated   : 329580
    interpolated : 1156 (from local:0  mixed local/remote:0  remote:1156)
    hole         : 18424

Execution time for mesh.update() = 0.54 s
Mesh Courant Number mean: 5.919842e-05 max: 0.0341913
smoothSolver:  Solving for alpha.water, Initial residual = 9.958067e-07, Final residual = 1.187942e-12, No Iterations 1
Phase-1 volume fraction = 0.1024225  Min(alpha.water) = -2.938523e-62  Max(alpha.water) = 1
MULES: Correcting alpha.water
MULES: Correcting alpha.water
MULES: Correcting alpha.water
Phase-1 volume fraction = 0.1024225  Min(alpha.water) = -2.938523e-62  Max(alpha.water) = 1
DILUPBiCGStab:  Solving for p_rgh, Initial residual = 0.002489152, Final residual = 2.472672e-06, No Iterations 146
DILUPBiCGStab:  Solving for p_rgh, Initial residual = 4.007656e-06, Final residual = 4.595323e-10, No Iterations 668
DILUPBiCGStab:  Solving for p_rgh, Initial residual = 8.349311e-07, Final residual = 7.973816e-10, No Iterations 101
time step continuity errors : sum local = 3.818899e-07, global = -1.322554e-06, cumulative = -1.164254
DILUPBiCGStab:  Solving for p_rgh, Initial residual = 0.001643224, Final residual = 1.232554e-06, No Iterations 155
DILUPBiCGStab:  Solving for p_rgh, Initial residual = 2.439571e-06, Final residual = 1.539564e-09, No Iterations 548
DILUPBiCGStab:  Solving for p_rgh, Initial residual = 4.629975e-07, Final residual = 4.460913e-10, No Iterations 278
time step continuity errors : sum local = 3.803402e-07, global = -1.316683e-06, cumulative = -1.164256
DILUPBiCGStab:  Solving for p_rgh, Initial residual = 0.001640213, Final residual = 1.636511e-06, No Iterations 130
DILUPBiCGStab:  Solving for p_rgh, Initial residual = 2.836411e-06, Final residual = 2.59943e-09, No Iterations 549
DILUPBiCGStab:  Solving for p_rgh, Initial residual = 5.369247e-07, Final residual = 9.608279e-11, No Iterations 480
time step continuity errors : sum local = 3.80098e-07, global = -1.315829e-06, cumulative = -1.164257
smoothSolver:  Solving for epsilon, Initial residual = 0.03137509, Final residual = 1.101219e-09, No Iterations 11
smoothSolver:  Solving for k, Initial residual = 0.01647796, Final residual = 5.859216e-09, No Iterations 10
PIMPLE: iteration 2
smoothSolver:  Solving for alpha.water, Initial residual = 2.949578e-07, Final residual = 1.759754e-11, No Iterations 2
Phase-1 volume fraction = 0.1024225  Min(alpha.water) = -2.937745e-62  Max(alpha.water) = 1
MULES: Correcting alpha.water
MULES: Correcting alpha.water
MULES: Correcting alpha.water
Phase-1 volume fraction = 0.1024225  Min(alpha.water) = -2.937745e-62  Max(alpha.water) = 1
DILUPBiCGStab:  Solving for p_rgh, Initial residual = 0.001657381, Final residual = 1.571922e-06, No Iterations 155
DILUPBiCGStab:  Solving for p_rgh, Initial residual = 2.797477e-06, Final residual = 2.726859e-09, No Iterations 563
DILUPBiCGStab:  Solving for p_rgh, Initial residual = 5.80741e-07, Final residual = 5.739471e-10, No Iterations 178
time step continuity errors : sum local = 3.83891e-07, global = -1.328883e-06, cumulative = -1.164258
DILUPBiCGStab:  Solving for p_rgh, Initial residual = 2.809273e-06, Final residual = 2.737454e-09, No Iterations 491
DILUPBiCGStab:  Solving for p_rgh, Initial residual = 6.056319e-08, Final residual = 9.801213e-11, No Iterations 376
DILUPBiCGStab:  Solving for p_rgh, Initial residual = 6.557262e-09, Final residual = 8.980417e-11, No Iterations 116
time step continuity errors : sum local = 3.833256e-07, global = -1.327155e-06, cumulative = -1.16426
DILUPBiCGStab:  Solving for p_rgh, Initial residual = 6.843185e-08, Final residual = 3.523411e-11, No Iterations 573
DILUPBiCGStab:  Solving for p_rgh, Initial residual = 1.753074e-09, Final residual = 9.105059e-11, No Iterations 18
DILUPBiCGStab:  Solving for p_rgh, Initial residual = 2.945067e-10, Final residual = 9.775587e-11, No Iterations 6
time step continuity errors : sum local = 3.833103e-07, global = -1.327108e-06, cumulative = -1.164261
smoothSolver:  Solving for epsilon, Initial residual = 0.002423803, Final residual = 1.647753e-09, No Iterations 9
smoothSolver:  Solving for k, Initial residual = 0.000476589, Final residual = 3.875783e-09, No Iterations 8
ExecutionTime = 95.29 s  ClockTime = 96 s

Courant Number mean: 0.001048853 max: 1.000972
Interface Courant Number mean: 3.558282e-07 max: 0.002647964
deltaT = 7.024994e-06
Time = 0.000684858

PIMPLE: iteration 1
inverseDistance : detected 2 mesh regions
    zone:0 nCells:347432  voxels:(312 759 1) bb:(-0.65 -1.6625 -0.1) (0.65 1.5 0.1)
    zone:1 nCells:1728  voxels:(312 759 1) bb:(-0.65 -1.6625 -0.1) (0.65 1.5 0.1)
Overset analysis : nCells : 349160
    calculated   : 329580
    interpolated : 1156 (from local:0  mixed local/remote:0  remote:1156)
    hole         : 18424

Execution time for mesh.update() = 0.53 s
Mesh Courant Number mean: 5.916168e-05 max: 0.03417008
smoothSolver:  Solving for alpha.water, Initial residual = 9.950913e-07, Final residual = 1.198022e-12, No Iterations 1
Phase-1 volume fraction = 0.1024225  Min(alpha.water) = -2.718529e-62  Max(alpha.water) = 1
MULES: Correcting alpha.water
MULES: Correcting alpha.water
MULES: Correcting alpha.water
Phase-1 volume fraction = 0.1024225  Min(alpha.water) = -2.718529e-62  Max(alpha.water) = 1
DILUPBiCGStab:  Solving for p_rgh, Initial residual = 0.001745833, Final residual = 1.637476e-06, No Iterations 122
DILUPBiCGStab:  Solving for p_rgh, Initial residual = 2.698817e-06, Final residual = 2.040706e-09, No Iterations 619
DILUPBiCGStab:  Solving for p_rgh, Initial residual = 3.996758e-07, Final residual = 3.827814e-10, No Iterations 388
time step continuity errors : sum local = 4.302725e-07, global = -1.481715e-06, cumulative = -1.164262
DILUPBiCGStab:  Solving for p_rgh, Initial residual = 0.001193899, Final residual = 1.172429e-06, No Iterations 125
DILUPBiCGStab:  Solving for p_rgh, Initial residual = 1.963211e-06, Final residual = 1.308966e-09, No Iterations 495
DILUPBiCGStab:  Solving for p_rgh, Initial residual = 2.660691e-07, Final residual = 2.653916e-10, No Iterations 353
time step continuity errors : sum local = 4.277305e-07, global = -1.472754e-06, cumulative = -1.164264
DILUPBiCGStab:  Solving for p_rgh, Initial residual = 0.001191678, Final residual = 1.172086e-06, No Iterations 121
DILUPBiCGStab:  Solving for p_rgh, Initial residual = 1.956078e-06, Final residual = 1.572569e-09, No Iterations 535
DILUPBiCGStab:  Solving for p_rgh, Initial residual = 2.523145e-07, Final residual = 8.753623e-11, No Iterations 452
time step continuity errors : sum local = 4.274568e-07, global = -1.471808e-06, cumulative = -1.164265
smoothSolver:  Solving for epsilon, Initial residual = 0.02982531, Final residual = 1.170979e-09, No Iterations 11
smoothSolver:  Solving for k, Initial residual = 0.01571547, Final residual = 6.017165e-09, No Iterations 10
PIMPLE: iteration 2
smoothSolver:  Solving for alpha.water, Initial residual = 2.942028e-07, Final residual = 1.849016e-11, No Iterations 2
Phase-1 volume fraction = 0.1024225  Min(alpha.water) = -2.717726e-62  Max(alpha.water) = 1
MULES: Correcting alpha.water
MULES: Correcting alpha.water
MULES: Correcting alpha.water
Phase-1 volume fraction = 0.1024225  Min(alpha.water) = -2.717726e-62  Max(alpha.water) = 1
DILUPBiCGStab:  Solving for p_rgh, Initial residual = 0.001205531, Final residual = 9.50565e-07, No Iterations 138
DILUPBiCGStab:  Solving for p_rgh, Initial residual = 1.760966e-06, Final residual = 1.211912e-09, No Iterations 606
DILUPBiCGStab:  Solving for p_rgh, Initial residual = 2.95672e-07, Final residual = 2.54709e-10, No Iterations 183
time step continuity errors : sum local = 4.320891e-07, global = -1.487698e-06, cumulative = -1.164267
DILUPBiCGStab:  Solving for p_rgh, Initial residual = 2.212247e-06, Final residual = 1.864213e-09, No Iterations 450
DILUPBiCGStab:  Solving for p_rgh, Initial residual = 3.675011e-08, Final residual = 5.768355e-11, No Iterations 340
DILUPBiCGStab:  Solving for p_rgh, Initial residual = 3.191143e-09, Final residual = 9.96342e-11, No Iterations 77
time step continuity errors : sum local = 4.318943e-07, global = -1.487175e-06, cumulative = -1.164268
DILUPBiCGStab:  Solving for p_rgh, Initial residual = 5.386847e-08, Final residual = 8.711124e-11, No Iterations 529
DILUPBiCGStab:  Solving for p_rgh, Initial residual = 1.125505e-09, Final residual = 7.99184e-11, No Iterations 64
DILUPBiCGStab:  Solving for p_rgh, Initial residual = 1.984312e-10, Final residual = 9.429121e-11, No Iterations 11
time step continuity errors : sum local = 4.318847e-07, global = -1.487146e-06, cumulative = -1.16427
smoothSolver:  Solving for epsilon, Initial residual = 0.002135959, Final residual = 1.616508e-09, No Iterations 9
smoothSolver:  Solving for k, Initial residual = 0.0004021919, Final residual = 3.398172e-09, No Iterations 8
ExecutionTime = 100.64 s  ClockTime = 101 s

Courant Number mean: 0.001048613 max: 1.001371
Interface Courant Number mean: 3.563394e-07 max: 0.002647181
deltaT = 7.014414e-06
Time = 0.000691872

PIMPLE: iteration 1
inverseDistance : detected 2 mesh regions
    zone:0 nCells:347432  voxels:(312 759 1) bb:(-0.65 -1.6625 -0.1) (0.65 1.5 0.1)
    zone:1 nCells:1728  voxels:(312 759 1) bb:(-0.65 -1.6625 -0.1) (0.65 1.5 0.1)
Overset analysis : nCells : 349160
    calculated   : 329680
    interpolated : 1154 (from local:0  mixed local/remote:0  remote:1154)
    hole         : 18326

Execution time for mesh.update() = 0.65 s
Mesh Courant Number mean: 5.901157e-05 max: 0.03412315
smoothSolver:  Solving for alpha.water, Initial residual = 9.937302e-07, Final residual = 1.212138e-12, No Iterations 1
Phase-1 volume fraction = 0.1024225  Min(alpha.water) = -2.498556e-62  Max(alpha.water) = 1
MULES: Correcting alpha.water
MULES: Correcting alpha.water
MULES: Correcting alpha.water
Phase-1 volume fraction = 0.1024225  Min(alpha.water) = -2.498556e-62  Max(alpha.water) = 1
DILUPBiCGStab:  Solving for p_rgh, Initial residual = 0.001887295, Final residual = 2.291246e-07, No Iterations 793
DILUPBiCGStab:  Solving for p_rgh, Initial residual = 1.014883e-05, Final residual = 9.034504e-09, No Iterations 457
DILUPBiCGStab:  Solving for p_rgh, Initial residual = 7.167293e-08, Final residual = 6.081924e-11, No Iterations 900
time step continuity errors : sum local = 7.041299e-06, global = -3.064912e-05, cumulative = -1.164301
DILUPBiCGStab:  Solving for p_rgh, Initial residual = 9.879397e-05, Final residual = 9.31411e-08, No Iterations 766
DILUPBiCGStab:  Solving for p_rgh, Initial residual = 7.193202e-06, Final residual = 8.126619e-06, No Iterations 1000
DILUPBiCGStab:  Solving for p_rgh, Initial residual = 9.569094e-06, Final residual = 8.333257e-09, No Iterations 587
time step continuity errors : sum local = 6.968395e-06, global = -3.03307e-05, cumulative = -1.164331
DILUPBiCGStab:  Solving for p_rgh, Initial residual = 0.0001010578, Final residual = 1.712825e-08, No Iterations 820
DILUPBiCGStab:  Solving for p_rgh, Initial residual = 7.161175e-06, Final residual = 6.994654e-09, No Iterations 310
DILUPBiCGStab:  Solving for p_rgh:  solution singularity
time step continuity errors : sum local = 6.966801e-06, global = -3.032378e-05, cumulative = -1.164361
smoothSolver:  Solving for epsilon, Initial residual = 0.0279798, Final residual = 1.303159e-09, No Iterations 8
smoothSolver:  Solving for k, Initial residual = 0.01491225, Final residual = 1.322715e-09, No Iterations 8
PIMPLE: iteration 2
smoothSolver:  Solving for alpha.water, Initial residual = 2.863741e-07, Final residual = 8.356046e-13, No Iterations 1
Phase-1 volume fraction = 0.1024225  Min(alpha.water) = -2.52398e-62  Max(alpha.water) = 1
MULES: Correcting alpha.water
MULES: Correcting alpha.water
MULES: Correcting alpha.water
Phase-1 volume fraction = 0.1024225  Min(alpha.water) = -2.52398e-62  Max(alpha.water) = 1
DILUPBiCGStab:  Solving for p_rgh, Initial residual = 9.950953e-05, Final residual = 2.880934e-08, No Iterations 773
DILUPBiCGStab:  Solving for p_rgh, Initial residual = 7.185274e-06, Final residual = 7.070645e-09, No Iterations 938
DILUPBiCGStab:  Solving for p_rgh, Initial residual = 5.51536e-08, Final residual = 3.94367e-09, No Iterations 1000
time step continuity errors : sum local = 6.96624e-06, global = -3.033416e-05, cumulative = -1.164392
DILUPBiCGStab:  Solving for p_rgh:  solution singularity
DILUPBiCGStab:  Solving for p_rgh, Initial residual = 1.349287e-07, Final residual = 1.270622e-10, No Iterations 638
DILUPBiCGStab:  Solving for p_rgh, Initial residual = 1.98722e-08, Final residual = 9.774049e-11, No Iterations 134
time step continuity errors : sum local = 6.823075e-06, global = -2.97088e-05, cumulative = -1.164421
DILUPBiCGStab:  Solving for p_rgh, Initial residual = 3.707244e-08, Final residual = 8.488531e-11, No Iterations 576
DILUPBiCGStab:  Solving for p_rgh, Initial residual = 1.208503e-09, Final residual = 9.981493e-11, No Iterations 390
DILUPBiCGStab:  Solving for p_rgh, Initial residual = 1.32533e-10, Final residual = 9.763784e-11, No Iterations 23
time step continuity errors : sum local = 6.823075e-06, global = -2.970881e-05, cumulative = -1.164451
smoothSolver:  Solving for epsilon, Initial residual = 0.003008282, Final residual = 6.349355e-09, No Iterations 6
smoothSolver:  Solving for k, Initial residual = 0.0009008936, Final residual = 4.032551e-09, No Iterations 6
ExecutionTime = 115.66 s  ClockTime = 116 s

Courant Number mean: 0.001064446 max: 1.131828
Interface Courant Number mean: 3.607999e-07 max: 0.002638871
deltaT = 6.197156e-06
Time = 0.000698069

PIMPLE: iteration 1
inverseDistance : detected 2 mesh regions
    zone:0 nCells:347432  voxels:(312 759 1) bb:(-0.65 -1.6625 -0.1) (0.65 1.5 0.1)
    zone:1 nCells:1728  voxels:(312 759 1) bb:(-0.65 -1.6625 -0.1) (0.65 1.5 0.1)
Overset analysis : nCells : 349160
    calculated   : 329680
    interpolated : 1154 (from local:0  mixed local/remote:0  remote:1154)
    hole         : 18326

Execution time for mesh.update() = 0.58 s
Mesh Courant Number mean: 5.214257e-05 max: 0.03015118
smoothSolver:  Solving for alpha.water, Initial residual = 8.909318e-07, Final residual = 9.536054e-13, No Iterations 1
Phase-1 volume fraction = 0.1024225  Min(alpha.water) = -2.374277e-62  Max(alpha.water) = 1
MULES: Correcting alpha.water
MULES: Correcting alpha.water
MULES: Correcting alpha.water
Phase-1 volume fraction = 0.1024225  Min(alpha.water) = -2.374277e-62  Max(alpha.water) = 1
DILUPBiCGStab:  Solving for p_rgh, Initial residual = 0.0001099458, Final residual = 3.325819e-08, No Iterations 724
DILUPBiCGStab:  Solving for p_rgh, Initial residual = 0.0004379253, Final residual = 4.139598e-07, No Iterations 619
DILUPBiCGStab:  Solving for p_rgh, Initial residual = 1.179605e-05, Final residual = 1.162393e-08, No Iterations 746
time step continuity errors : sum local = 1.395157e-07, global = -4.640485e-07, cumulative = -1.164451
DILUPBiCGStab:  Solving for p_rgh, Initial residual = 0.0001076706, Final residual = 1.058995e-07, No Iterations 722
DILUPBiCGStab:  Solving for p_rgh, Initial residual = 0.001738974, Final residual = 3.51232e-06, No Iterations 1000
DILUPBiCGStab:  Solving for p_rgh, Initial residual = 7.412382e-05, Final residual = 5.286469e-08, No Iterations 422
time step continuity errors : sum local = 3.701743e-08, global = -1.12726e-08, cumulative = -1.164451
DILUPBiCGStab:  Solving for p_rgh, Initial residual = 0.0001083118, Final residual = 6.34061e-08, No Iterations 934
DILUPBiCGStab:  Solving for p_rgh, Initial residual = 0.001915266, Final residual = 3.344886e-06, No Iterations 1000
DILUPBiCGStab:  Solving for p_rgh, Initial residual = 8.278262e-05, Final residual = 2.473223e-10, No Iterations 1000
time step continuity errors : sum local = 3.602174e-08, global = -1.7044e-09, cumulative = -1.164451
smoothSolver:  Solving for epsilon, Initial residual = 0.02547496, Final residual = 1.179095e-09, No Iterations 8
smoothSolver:  Solving for k, Initial residual = 0.01354325, Final residual = 1.20488e-09, No Iterations 8
PIMPLE: iteration 2
smoothSolver:  Solving for alpha.water, Initial residual = 2.551559e-07, Final residual = 6.473488e-13, No Iterations 1
Phase-1 volume fraction = 0.1024225  Min(alpha.water) = -2.373364e-62  Max(alpha.water) = 1
MULES: Correcting alpha.water
MULES: Correcting alpha.water
MULES: Correcting alpha.water
[...]
time step continuity errors : sum local = 2.663116e-07, global = -1.304307e-06, cumulative = -1.165325
DILUPBiCGStab:  Solving for p_rgh, Initial residual = 6.062991e-05, Final residual = 5.389417e-08, No Iterations 146
DILUPBiCGStab:  Solving for p_rgh, Initial residual = 1.110855e-07, Final residual = 1.049269e-10, No Iterations 732
DILUPBiCGStab:  Solving for p_rgh, Initial residual = 3.884995e-08, Final residual = 9.794131e-11, No Iterations 91
time step continuity errors : sum local = 2.661179e-07, global = -1.303412e-06, cumulative = -1.165326
smoothSolver:  Solving for epsilon, Initial residual = 0.003301353, Final residual = 5.787989e-09, No Iterations 7
smoothSolver:  Solving for k, Initial residual = 0.003129841, Final residual = 4.464808e-09, No Iterations 7
PIMPLE: iteration 2
smoothSolver:  Solving for alpha.water, Initial residual = 3.694982e-07, Final residual = 2.080379e-12, No Iterations 2
Phase-1 volume fraction = 0.1024224  Min(alpha.water) = -2.315776e-66  Max(alpha.water) = 1
MULES: Correcting alpha.water
MULES: Correcting alpha.water
MULES: Correcting alpha.water
Phase-1 volume fraction = 0.1024224  Min(alpha.water) = -2.315776e-66  Max(alpha.water) = 1
DILUPBiCGStab:  Solving for p_rgh, Initial residual = 6.808438e-05, Final residual = 5.064472e-08, No Iterations 536
DILUPBiCGStab:  Solving for p_rgh, Initial residual = 2.767389e-07, Final residual = 2.755139e-10, No Iterations 664
DILUPBiCGStab:  Solving for p_rgh, Initial residual = 1.725543e-08, Final residual = 9.735915e-11, No Iterations 203
time step continuity errors : sum local = 2.619546e-07, global = -1.284068e-06, cumulative = -1.165328
DILUPBiCGStab:  Solving for p_rgh, Initial residual = 2.19919e-07, Final residual = 9.388619e-11, No Iterations 668
DILUPBiCGStab:  Solving for p_rgh, Initial residual = 1.581877e-09, Final residual = 9.400165e-11, No Iterations 113
DILUPBiCGStab:  Solving for p_rgh, Initial residual = 1.722314e-10, Final residual = 9.85383e-11, No Iterations 16
time step continuity errors : sum local = 2.621251e-07, global = -1.284857e-06, cumulative = -1.165329
DILUPBiCGStab:  Solving for p_rgh, Initial residual = 4.410116e-09, Final residual = 8.958635e-11, No Iterations 134
DILUPBiCGStab:  Solving for p_rgh, Initial residual = 1.057965e-10, Final residual = 9.898835e-11, No Iterations 16
DILUPBiCGStab:  Solving for p_rgh, Initial residual = 1.015803e-10, Final residual = 9.473552e-11, No Iterations 9
time step continuity errors : sum local = 2.621245e-07, global = -1.284854e-06, cumulative = -1.16533
smoothSolver:  Solving for epsilon, Initial residual = 5.427783e-05, Final residual = 3.225144e-09, No Iterations 5
smoothSolver:  Solving for k, Initial residual = 2.24957e-05, Final residual = 3.110772e-09, No Iterations 5
ExecutionTime = 1011.21 s  ClockTime = 1015 s

Courant Number mean: 0.0009344438 max: 1.0011
Interface Courant Number mean: 3.231851e-07 max: 0.002178214
deltaT = 5.699814e-06
Time = 0.00127358

PIMPLE: iteration 1
inverseDistance : detected 2 mesh regions
    zone:0 nCells:347432  voxels:(312 759 1) bb:(-0.65 -1.6625 -0.1) (0.65 1.5 0.1)
    zone:1 nCells:1728  voxels:(312 759 1) bb:(-0.65 -1.6625 -0.1) (0.65 1.5 0.1)
Overset analysis : nCells : 349160
    calculated   : 329680
    interpolated : 1154 (from local:0  mixed local/remote:0  remote:1154)
    hole         : 18326

Execution time for mesh.update() = 0.56 s
Mesh Courant Number mean: 4.847067e-05 max: 0.02802792
smoothSolver:  Solving for alpha.water, Initial residual = 8.724558e-07, Final residual = 1.048306e-12, No Iterations 1
Phase-1 volume fraction = 0.1024224  Min(alpha.water) = -1.957557e-66  Max(alpha.water) = 1
MULES: Correcting alpha.water
MULES: Correcting alpha.water
MULES: Correcting alpha.water
Phase-1 volume fraction = 0.1024224  Min(alpha.water) = -1.957557e-66  Max(alpha.water) = 1
DILUPBiCGStab:  Solving for p_rgh, Initial residual = 8.626186e-05, Final residual = 8.402315e-08, No Iterations 274
DILUPBiCGStab:  Solving for p_rgh, Initial residual = 2.181177e-07, Final residual = 2.119606e-10, No Iterations 512
DILUPBiCGStab:  Solving for p_rgh, Initial residual = 4.563638e-08, Final residual = 9.885506e-11, No Iterations 115
time step continuity errors : sum local = 2.637172e-07, global = -1.293312e-06, cumulative = -1.165331
DILUPBiCGStab:  Solving for p_rgh, Initial residual = 6.116011e-05, Final residual = 6.060953e-08, No Iterations 189
DILUPBiCGStab:  Solving for p_rgh, Initial residual = 1.178873e-07, Final residual = 7.477576e-11, No Iterations 607
DILUPBiCGStab:  Solving for p_rgh, Initial residual = 2.732372e-08, Final residual = 9.783824e-11, No Iterations 46
time step continuity errors : sum local = 2.592384e-07, global = -1.272662e-06, cumulative = -1.165333
DILUPBiCGStab:  Solving for p_rgh, Initial residual = 6.038132e-05, Final residual = 6.006718e-08, No Iterations 158
DILUPBiCGStab:  Solving for p_rgh, Initial residual = 1.172382e-07, Final residual = 4.059509e-11, No Iterations 753
DILUPBiCGStab:  Solving for p_rgh, Initial residual = 3.533505e-08, Final residual = 8.59263e-11, No Iterations 36
time step continuity errors : sum local = 2.590491e-07, global = -1.271786e-06, cumulative = -1.165334
smoothSolver:  Solving for epsilon, Initial residual = 0.003268421, Final residual = 5.643101e-09, No Iterations 7
smoothSolver:  Solving for k, Initial residual = 0.003107331, Final residual = 4.442815e-09, No Iterations 7
PIMPLE: iteration 2
smoothSolver:  Solving for alpha.water, Initial residual = 3.700439e-07, Final residual = 2.087511e-12, No Iterations 2
Phase-1 volume fraction = 0.1024224  Min(alpha.water) = -1.958027e-66  Max(alpha.water) = 1
MULES: Correcting alpha.water
MULES: Correcting alpha.water
MULES: Correcting alpha.water
Phase-1 volume fraction = 0.1024224  Min(alpha.water) = -1.958027e-66  Max(alpha.water) = 1
DILUPBiCGStab:  Solving for p_rgh, Initial residual = 6.820067e-05, Final residual = 4.02686e-08, No Iterations 635
DILUPBiCGStab:  Solving for p_rgh, Initial residual = 2.598878e-07, Final residual = 1.383203e-10, No Iterations 664
DILUPBiCGStab:  Solving for p_rgh, Initial residual = 2.211768e-08, Final residual = 9.667819e-11, No Iterations 108
time step continuity errors : sum local = 2.548674e-07, global = -1.252337e-06, cumulative = -1.165335
DILUPBiCGStab:  Solving for p_rgh, Initial residual = 2.182362e-07, Final residual = 9.817884e-11, No Iterations 576
DILUPBiCGStab:  Solving for p_rgh, Initial residual = 1.591517e-09, Final residual = 9.595529e-11, No Iterations 71
DILUPBiCGStab:  Solving for p_rgh, Initial residual = 1.648927e-10, Final residual = 9.381536e-11, No Iterations 38
time step continuity errors : sum local = 2.550311e-07, global = -1.253096e-06, cumulative = -1.165336
DILUPBiCGStab:  Solving for p_rgh, Initial residual = 4.350509e-09, Final residual = 4.622795e-11, No Iterations 113
DILUPBiCGStab:  Solving for p_rgh, Initial residual = 6.549078e-11, Final residual = 6.549078e-11, No Iterations 0
DILUPBiCGStab:  Solving for p_rgh, Initial residual = 6.549078e-11, Final residual = 6.549078e-11, No Iterations 0
time step continuity errors : sum local = 2.550304e-07, global = -1.253093e-06, cumulative = -1.165338
smoothSolver:  Solving for epsilon, Initial residual = 5.351782e-05, Final residual = 3.247498e-09, No Iterations 5
smoothSolver:  Solving for k, Initial residual = 2.215837e-05, Final residual = 3.077058e-09, No Iterations 5
ExecutionTime = 1017.13 s  ClockTime = 1021 s

Courant Number mean: 0.0009337155 max: 1.000594
Interface Courant Number mean: 3.232826e-07 max: 0.002175675
deltaT = 5.696094e-06
Time = 0.00127928

PIMPLE: iteration 1
inverseDistance : detected 2 mesh regions
    zone:0 nCells:347432  voxels:(312 759 1) bb:(-0.65 -1.6625 -0.1) (0.65 1.5 0.1)
    zone:1 nCells:1728  voxels:(312 759 1) bb:(-0.65 -1.6625 -0.1) (0.65 1.5 0.1)
Overset analysis : nCells : 349160
    calculated   : 329680
    interpolated : 1154 (from local:0  mixed local/remote:0  remote:1154)
    hole         : 18326

Execution time for mesh.update() = 0.59 s
Mesh Courant Number mean: 4.844401e-05 max: 0.02801251
smoothSolver:  Solving for alpha.water, Initial residual = 8.722917e-07, Final residual = 1.050304e-12, No Iterations 1
Phase-1 volume fraction = 0.1024224  Min(alpha.water) = -1.598404e-66  Max(alpha.water) = 1
MULES: Correcting alpha.water
MULES: Correcting alpha.water
MULES: Correcting alpha.water
Phase-1 volume fraction = 0.1024224  Min(alpha.water) = -1.598404e-66  Max(alpha.water) = 1
DILUPBiCGStab:  Solving for p_rgh, Initial residual = 8.931151e-05, Final residual = 8.621637e-08, No Iterations 235
DILUPBiCGStab:  Solving for p_rgh, Initial residual = 2.09887e-07, Final residual = 1.996117e-10, No Iterations 606
DILUPBiCGStab:  Solving for p_rgh, Initial residual = 4.463822e-08, Final residual = 9.881909e-11, No Iterations 145
time step continuity errors : sum local = 2.56769e-07, global = -1.262321e-06, cumulative = -1.165339
DILUPBiCGStab:  Solving for p_rgh, Initial residual = 6.32588e-05, Final residual = 5.399039e-08, No Iterations 211
DILUPBiCGStab:  Solving for p_rgh, Initial residual = 1.078251e-07, Final residual = 1.066799e-10, No Iterations 591
DILUPBiCGStab:  Solving for p_rgh, Initial residual = 2.349226e-08, Final residual = 9.673115e-11, No Iterations 55
time step continuity errors : sum local = 2.523919e-07, global = -1.242118e-06, cumulative = -1.16534
DILUPBiCGStab:  Solving for p_rgh, Initial residual = 6.255943e-05, Final residual = 5.718352e-08, No Iterations 148
DILUPBiCGStab:  Solving for p_rgh, Initial residual = 1.099778e-07, Final residual = 7.342738e-11, No Iterations 615
DILUPBiCGStab:  Solving for p_rgh, Initial residual = 3.495825e-08, Final residual = 9.830833e-11, No Iterations 45
time step continuity errors : sum local = 2.522063e-07, global = -1.241259e-06, cumulative = -1.165341
smoothSolver:  Solving for epsilon, Initial residual = 0.00323794, Final residual = 5.511256e-09, No Iterations 7
smoothSolver:  Solving for k, Initial residual = 0.003086675, Final residual = 4.421968e-09, No Iterations 7
PIMPLE: iteration 2
smoothSolver:  Solving for alpha.water, Initial residual = 3.708226e-07, Final residual = 2.09684e-12, No Iterations 2
Phase-1 volume fraction = 0.1024224  Min(alpha.water) = -1.598855e-66  Max(alpha.water) = 1
MULES: Correcting alpha.water
MULES: Correcting alpha.water
MULES: Correcting alpha.water
Phase-1 volume fraction = 0.1024224  Min(alpha.water) = -1.598855e-66  Max(alpha.water) = 1
DILUPBiCGStab:  Solving for p_rgh, Initial residual = 7.048353e-05, Final residual = 3.428899e-08, No Iterations 492
DILUPBiCGStab:  Solving for p_rgh, Initial residual = 2.714865e-07, Final residual = 1.535398e-10, No Iterations 586
DILUPBiCGStab:  Solving for p_rgh, Initial residual = 1.505175e-08, Final residual = 9.590768e-11, No Iterations 170
time step continuity errors : sum local = 2.479997e-07, global = -1.221671e-06, cumulative = -1.165343
DILUPBiCGStab:  Solving for p_rgh, Initial residual = 2.193927e-07, Final residual = 1.447978e-10, No Iterations 557
DILUPBiCGStab:  Solving for p_rgh, Initial residual = 1.663784e-09, Final residual = 9.314923e-11, No Iterations 290
DILUPBiCGStab:  Solving for p_rgh, Initial residual = 2.191521e-10, Final residual = 5.23725e-11, No Iterations 87
time step continuity errors : sum local = 2.48163e-07, global = -1.222429e-06, cumulative = -1.165344
DILUPBiCGStab:  Solving for p_rgh, Initial residual = 4.444011e-09, Final residual = 8.376301e-11, No Iterations 117
DILUPBiCGStab:  Solving for p_rgh, Initial residual = 1.065761e-10, Final residual = 9.48844e-11, No Iterations 62
DILUPBiCGStab:  Solving for p_rgh, Initial residual = 1.110067e-10, Final residual = 9.743251e-11, No Iterations 7
time step continuity errors : sum local = 2.481624e-07, global = -1.222426e-06, cumulative = -1.165345
smoothSolver:  Solving for epsilon, Initial residual = 5.284127e-05, Final residual = 3.267699e-09, No Iterations 5
smoothSolver:  Solving for k, Initial residual = 2.186285e-05, Final residual = 3.051529e-09, No Iterations 5
ExecutionTime = 1026.08 s  ClockTime = 1030 s

Courant Number mean: 0.0009335787 max: 1.000728
Interface Courant Number mean: 3.2321e-07 max: 0.00217456
deltaT = 5.692376e-06
Time = 0.00128497

PIMPLE: iteration 1
inverseDistance : detected 2 mesh regions
    zone:0 nCells:347432  voxels:(312 759 1) bb:(-0.65 -1.6625 -0.1) (0.65 1.5 0.1)
    zone:1 nCells:1728  voxels:(312 759 1) bb:(-0.65 -1.6625 -0.1) (0.65 1.5 0.1)
Overset analysis : nCells : 349160
    calculated   : 329680
    interpolated : 1154 (from local:0  mixed local/remote:0  remote:1154)
    hole         : 18326

Execution time for mesh.update() = 0.53 s
Mesh Courant Number mean: 4.841735e-05 max: 0.0279971
smoothSolver:  Solving for alpha.water, Initial residual = 8.721189e-07, Final residual = 1.052305e-12, No Iterations 1
Phase-1 volume fraction = 0.1024223  Min(alpha.water) = -1.237814e-66  Max(alpha.water) = 1
MULES: Correcting alpha.water
MULES: Correcting alpha.water
MULES: Correcting alpha.water
Phase-1 volume fraction = 0.1024223  Min(alpha.water) = -1.237814e-66  Max(alpha.water) = 1
DILUPBiCGStab:  Solving for p_rgh, Initial residual = 9.095529e-05, Final residual = 8.781309e-08, No Iterations 244
DILUPBiCGStab:  Solving for p_rgh, Initial residual = 2.038355e-07, Final residual = 1.752899e-10, No Iterations 532
DILUPBiCGStab:  Solving for p_rgh, Initial residual = 4.107053e-08, Final residual = 7.870017e-11, No Iterations 150
time step continuity errors : sum local = 2.501111e-07, global = -1.232668e-06, cumulative = -1.165346
DILUPBiCGStab:  Solving for p_rgh, Initial residual = 6.433609e-05, Final residual = 5.906844e-08, No Iterations 217
DILUPBiCGStab:  Solving for p_rgh, Initial residual = 1.111623e-07, Final residual = 9.034061e-11, No Iterations 551
DILUPBiCGStab:  Solving for p_rgh, Initial residual = 2.18285e-08, Final residual = 9.863524e-11, No Iterations 108
time step continuity errors : sum local = 2.458352e-07, global = -1.212911e-06, cumulative = -1.165348
DILUPBiCGStab:  Solving for p_rgh, Initial residual = 6.36391e-05, Final residual = 6.088298e-08, No Iterations 151
DILUPBiCGStab:  Solving for p_rgh, Initial residual = 1.121799e-07, Final residual = 9.481094e-11, No Iterations 701
DILUPBiCGStab:  Solving for p_rgh, Initial residual = 3.131108e-08, Final residual = 9.644806e-11, No Iterations 48
time step continuity errors : sum local = 2.456534e-07, global = -1.212068e-06, cumulative = -1.165349
smoothSolver:  Solving for epsilon, Initial residual = 0.003207724, Final residual = 5.380015e-09, No Iterations 7
smoothSolver:  Solving for k, Initial residual = 0.003065894, Final residual = 4.400136e-09, No Iterations 7
PIMPLE: iteration 2
smoothSolver:  Solving for alpha.water, Initial residual = 3.71591e-07, Final residual = 2.105892e-12, No Iterations 2
Phase-1 volume fraction = 0.1024223  Min(alpha.water) = -1.238246e-66  Max(alpha.water) = 1
MULES: Correcting alpha.water
MULES: Correcting alpha.water
MULES: Correcting alpha.water
Phase-1 volume fraction = 0.1024223  Min(alpha.water) = -1.238246e-66  Max(alpha.water) = 1
DILUPBiCGStab:  Solving for p_rgh, Initial residual = 7.166571e-05, Final residual = 3.492219e-08, No Iterations 543
DILUPBiCGStab:  Solving for p_rgh, Initial residual = 2.627333e-07, Final residual = 2.614211e-10, No Iterations 420
DILUPBiCGStab:  Solving for p_rgh, Initial residual = 1.634321e-08, Final residual = 9.225028e-11, No Iterations 216
time step continuity errors : sum local = 2.414002e-07, global = -1.192226e-06, cumulative = -1.16535
DILUPBiCGStab:  Solving for p_rgh, Initial residual = 2.267826e-07, Final residual = 1.229048e-10, No Iterations 627
DILUPBiCGStab:  Solving for p_rgh, Initial residual = 1.814531e-09, Final residual = 9.68355e-11, No Iterations 165
DILUPBiCGStab:  Solving for p_rgh, Initial residual = 1.99609e-10, Final residual = 9.948227e-11, No Iterations 25
time step continuity errors : sum local = 2.415587e-07, global = -1.192962e-06, cumulative = -1.165351
DILUPBiCGStab:  Solving for p_rgh, Initial residual = 4.663283e-09, Final residual = 8.221615e-11, No Iterations 125
DILUPBiCGStab:  Solving for p_rgh, Initial residual = 1.066498e-10, Final residual = 7.859007e-11, No Iterations 1
DILUPBiCGStab:  Solving for p_rgh, Initial residual = 7.936119e-11, Final residual = 7.936119e-11, No Iterations 0
time step continuity errors : sum local = 2.41558e-07, global = -1.192959e-06, cumulative = -1.165352
smoothSolver:  Solving for epsilon, Initial residual = 5.216346e-05, Final residual = 3.277331e-09, No Iterations 5
smoothSolver:  Solving for k, Initial residual = 2.156833e-05, Final residual = 3.027388e-09, No Iterations 5
ExecutionTime = 1032.72 s  ClockTime = 1037 s

Courant Number mean: 0.0009334235 max: 1.000848
Interface Courant Number mean: 3.231344e-07 max: 0.002173448
deltaT = 5.68866e-06
Time = 0.00129066

PIMPLE: iteration 1
inverseDistance : detected 2 mesh regions
    zone:0 nCells:347432  voxels:(312 759 1) bb:(-0.65 -1.6625 -0.1) (0.65 1.5 0.1)
    zone:1 nCells:1728  voxels:(312 759 1) bb:(-0.65 -1.6625 -0.1) (0.65 1.5 0.1)
Overset analysis : nCells : 349160
    calculated   : 329680
    interpolated : 1154 (from local:0  mixed local/remote:0  remote:1154)
    hole         : 18326

Execution time for mesh.update() = 0.63 s
Mesh Courant Number mean: 4.839071e-05 max: 0.02798169
smoothSolver:  Solving for alpha.water, Initial residual = 8.719377e-07, Final residual = 1.054307e-12, No Iterations 1
Phase-1 volume fraction = 0.1024223  Min(alpha.water) = -8.78807e-67  Max(alpha.water) = 1
MULES: Correcting alpha.water
MULES: Correcting alpha.water
MULES: Correcting alpha.water
Phase-1 volume fraction = 0.1024223  Min(alpha.water) = -8.78807e-67  Max(alpha.water) = 1
DILUPBiCGStab:  Solving for p_rgh, Initial residual = 9.260625e-05, Final residual = 9.144715e-08, No Iterations 212
DILUPBiCGStab:  Solving for p_rgh, Initial residual = 2.038552e-07, Final residual = 1.962817e-10, No Iterations 606
DILUPBiCGStab:  Solving for p_rgh, Initial residual = 4.049012e-08, Final residual = 9.625751e-11, No Iterations 121
time step continuity errors : sum local = 2.436289e-07, global = -1.203798e-06, cumulative = -1.165354
DILUPBiCGStab:  Solving for p_rgh, Initial residual = 6.5385e-05, Final residual = 6.450677e-08, No Iterations 200
DILUPBiCGStab:  Solving for p_rgh, Initial residual = 1.170018e-07, Final residual = 1.131297e-10, No Iterations 630
DILUPBiCGStab:  Solving for p_rgh, Initial residual = 2.580868e-08, Final residual = 9.780929e-11, No Iterations 106
time step continuity errors : sum local = 2.394504e-07, global = -1.184469e-06, cumulative = -1.165355
DILUPBiCGStab:  Solving for p_rgh, Initial residual = 6.47272e-05, Final residual = 5.165658e-08, No Iterations 133
DILUPBiCGStab:  Solving for p_rgh, Initial residual = 9.853915e-08, Final residual = 8.770292e-11, No Iterations 566
DILUPBiCGStab:  Solving for p_rgh, Initial residual = 2.769483e-08, Final residual = 9.680019e-11, No Iterations 79
time step continuity errors : sum local = 2.392725e-07, global = -1.183643e-06, cumulative = -1.165356
smoothSolver:  Solving for epsilon, Initial residual = 0.003177905, Final residual = 5.250274e-09, No Iterations 7
smoothSolver:  Solving for k, Initial residual = 0.003044957, Final residual = 4.375228e-09, No Iterations 7
PIMPLE: iteration 2
smoothSolver:  Solving for alpha.water, Initial residual = 3.723535e-07, Final residual = 2.114662e-12, No Iterations 2
Phase-1 volume fraction = 0.1024223  Min(alpha.water) = -8.792166e-67  Max(alpha.water) = 1
MULES: Correcting alpha.water
MULES: Correcting alpha.water
MULES: Correcting alpha.water
Phase-1 volume fraction = 0.1024223  Min(alpha.water) = -8.792166e-67  Max(alpha.water) = 1
DILUPBiCGStab:  Solving for p_rgh, Initial residual = 7.283618e-05, Final residual = 7.213433e-08, No Iterations 653
